1

   Abaqus 2022.HF4                                  Date 27-Feb-2023   Time 21:21:49
   For use by BRIGHAM YOUNG UNIVERSITY under license from Dassault Systemes or its subsidiary.

                                                                                 
                                                                                 
 STEP    1     INCREMENT     1     STEP TIME    0.00    


                        S T E P       1     C A L C U L A T I O N   O F   E I G E N V A L U E S

                                            F O R   B U C K L I N G   P R E D I C T I O N



                                                                                          

     THE SUBSPACE ITERATION METHOD IS USED FOR THIS ANALYSIS
     NUMBER OF EIGENVALUES                      2
     MAXIMUM NUMBER OF ITERATIONS                   1000
     NUMBER OF VECTORS IN ITERATION                    4
     THE BUCKLING MODE CONSTRAINTS 
      ARE DEFINED AS LOAD CASE 2
                              ONLY INITIAL STRESS EFFECTS ARE INCLUDED IN THE
                              STIFFNESS MATRIX

     THIS IS A LINEAR PERTURBATION STEP.
     ALL LOADS ARE DEFINED AS CHANGE IN LOAD TO THE REFERENCE STATE

     EXTRAPOLATION WILL NOT BE USED

     CHARACTERISTIC ELEMENT LENGTH      3.43    

     DETAILS REGARDING ACTUAL SOLUTION WAVEFRONT REQUESTED

     DETAILED OUTPUT OF DIAGNOSTICS TO DATABASE REQUESTED

     PRINT OF INCREMENT NUMBER, TIME, ETC., TO THE MESSAGE FILE EVERY     1  INCREMENTS
 
	SYMMETRIC DIRECT SPARSE SOLVER RUNNING ON
 	1 HOST:        1 MPI RANK  x 1 THREAD
 	NUMBER OF EQUATIONS:     1422
 	NUMBER OF RHS:           1
 	NUMBER OF FLOPS:         1.121e+08

     CHECK POINT  START OF SOLVER     

     CHECK POINT  END OF SOLVER       

       ELAPSED USER TIME (SEC)      =   0.0000    
       ELAPSED SYSTEM TIME (SEC)    =   0.0000    
       ELAPSED TOTAL CPU TIME (SEC) =   0.0000    
       ELAPSED WALLCLOCK TIME (SEC) =            0
 
     ITERATION 1
      1       5.480347e+02     
      2       9.140335e+02     
      3       -1.150385e+03    
      4       -2.164255e+03    
 
     NUMBER OF EIGENVALUES CONVERGED UPTO THIS ITERATION = 0
 
     ITERATION 2
      1       1.630648e+02     
      2       2.512651e+02     
      3       -4.130909e+02    
      4       -1.339956e+03    
 
     NUMBER OF EIGENVALUES CONVERGED UPTO THIS ITERATION = 0
 
     ITERATION 3
      1       1.402540e+02     
      2       1.939649e+02     
      3       -3.162642e+02    
      4       -7.786881e+02    
 
     NUMBER OF EIGENVALUES CONVERGED UPTO THIS ITERATION = 0
 
     ITERATION 4
      1       1.229118e+02     
      2       1.708325e+02     
      3       -2.574571e+02    
      4       -4.150165e+02    
 
     NUMBER OF EIGENVALUES CONVERGED UPTO THIS ITERATION = 0
 
     ITERATION 5
      1       1.108836e+02     
      2       1.613629e+02     
      3       -2.170650e+02    
      4       -2.643064e+02    
 
     NUMBER OF EIGENVALUES CONVERGED UPTO THIS ITERATION = 0
 
     ITERATION 6
      1       1.037443e+02     
      2       1.568059e+02     
      3       -1.847844e+02    
      4       -1.983138e+02    
 
     NUMBER OF EIGENVALUES CONVERGED UPTO THIS ITERATION = 0
 
     ITERATION 7
      1       9.964313e+01     
      2       1.541929e+02     
      3       -1.549130e+02    
      4       -1.709301e+02    
 
     NUMBER OF EIGENVALUES CONVERGED UPTO THIS ITERATION = 0
 
     ITERATION 8
      1       9.725999e+01     
      2       -1.356825e+02    
      3       1.523683e+02     
      4       -1.539215e+02    
 
     NUMBER OF EIGENVALUES CONVERGED UPTO THIS ITERATION = 0
 
     ITERATION 9
      1       9.584099e+01     
      2       -1.241481e+02    
      3       -1.412203e+02    
      4       1.507979e+02     
 
     NUMBER OF EIGENVALUES CONVERGED UPTO THIS ITERATION = 0
 
     ITERATION 10
      1       9.497211e+01     
      2       -1.170772e+02    
      3       -1.314355e+02    
      4       1.492164e+02     
 
     NUMBER OF EIGENVALUES CONVERGED UPTO THIS ITERATION = 0
 
     ITERATION 11
      1       9.442463e+01     
      2       -1.126229e+02    
      3       -1.238044e+02    
      4       1.474945e+02     
 
     NUMBER OF EIGENVALUES CONVERGED UPTO THIS ITERATION = 0
 
     ITERATION 12
      1       9.406977e+01     
      2       -1.097172e+02    
      3       -1.178195e+02    
      4       1.455769e+02     
 
     NUMBER OF EIGENVALUES CONVERGED UPTO THIS ITERATION = 0
 
     ITERATION 13
      1       9.383327e+01     
      2       -1.077070e+02    
      3       -1.131359e+02    
      4       1.434493e+02     
 
     NUMBER OF EIGENVALUES CONVERGED UPTO THIS ITERATION = 0
 
     ITERATION 14
      1       9.367134e+01     
      2       -1.061328e+02    
      3       -1.095581e+02    
      4       1.411209e+02     
 
     NUMBER OF EIGENVALUES CONVERGED UPTO THIS ITERATION = 0
 
     ITERATION 15
      1       9.355753e+01     
      2       -1.045553e+02    
      3       -1.070844e+02    
      4       1.386144e+02     
 
     NUMBER OF EIGENVALUES CONVERGED UPTO THIS ITERATION = 0
 
     ITERATION 16
      1       9.347550e+01     
      2       -1.027602e+02    
      3       -1.056261e+02    
      4       1.359608e+02     
 
     NUMBER OF EIGENVALUES CONVERGED UPTO THIS ITERATION = 0
 
     ITERATION 17
      1       9.341498e+01     
      2       -1.010363e+02    
      3       -1.046829e+02    
      4       1.331964e+02     
 
     NUMBER OF EIGENVALUES CONVERGED UPTO THIS ITERATION = 0
 
     ITERATION 18
      1       9.336933e+01     
      2       -9.955946e+01    
      3       -1.039297e+02    
      4       1.303605e+02     
 
     NUMBER OF EIGENVALUES CONVERGED UPTO THIS ITERATION = 0
 
     ITERATION 19
      1       9.333421e+01     
      2       -9.833849e+01    
      3       -1.032516e+02    
      4       1.274940e+02     
 
     NUMBER OF EIGENVALUES CONVERGED UPTO THIS ITERATION = 0
 
     ITERATION 20
      1       9.330668e+01     
      2       -9.734088e+01    
      3       -1.026054e+02    
      4       1.246380e+02     
 
     NUMBER OF EIGENVALUES CONVERGED UPTO THIS ITERATION = 0
 
     ITERATION 21
      1       9.328474e+01     
      2       -9.652961e+01    
      3       -1.019744e+02    
      4       1.218316e+02     
 
     NUMBER OF EIGENVALUES CONVERGED UPTO THIS ITERATION = 0
 
     ITERATION 22
      1       9.326696e+01     
      2       -9.587136e+01    
      3       -1.013534e+02    
      4       1.191110e+02     
 
     NUMBER OF EIGENVALUES CONVERGED UPTO THIS ITERATION = 0
 
     ITERATION 23
      1       9.325233e+01     
      2       -9.533796e+01    
      3       -1.007434e+02    
      4       1.165074e+02     
 
     NUMBER OF EIGENVALUES CONVERGED UPTO THIS ITERATION = 0
 
     ITERATION 24
      1       9.324010e+01     
      2       -9.490611e+01    
      3       -1.001484e+02    
      4       1.140468e+02     
 
     NUMBER OF EIGENVALUES CONVERGED UPTO THIS ITERATION = 0
 
     ITERATION 25
      1       9.322971e+01     
      2       -9.455671e+01    
      3       -9.957340e+01    
      4       1.117484e+02     
 
     NUMBER OF EIGENVALUES CONVERGED UPTO THIS ITERATION = 0
 
     ITERATION 26
      1       9.322074e+01     
      2       -9.427419e+01    
      3       -9.902373e+01    
      4       1.096253e+02     
 
     NUMBER OF EIGENVALUES CONVERGED UPTO THIS ITERATION = 0
 
     ITERATION 27
      1       9.321284e+01     
      2       -9.404588e+01    
      3       -9.850394e+01    
      4       1.076843e+02     
 
     NUMBER OF EIGENVALUES CONVERGED UPTO THIS ITERATION = 0
 
     ITERATION 28
      1       9.320575e+01     
      2       -9.386149e+01    
      3       -9.801764e+01    
      4       1.059265e+02     
 
     NUMBER OF EIGENVALUES CONVERGED UPTO THIS ITERATION = 0
 
     ITERATION 29
      1       9.319926e+01     
      2       -9.371264e+01    
      3       -9.756724e+01    
      4       1.043484e+02     
 
     NUMBER OF EIGENVALUES CONVERGED UPTO THIS ITERATION = 0
 
     ITERATION 30
      1       9.319320e+01     
      2       -9.359255e+01    
      3       -9.715400e+01    
      4       1.029428e+02     
 
     NUMBER OF EIGENVALUES CONVERGED UPTO THIS ITERATION = 0
 
     ITERATION 31
      1       9.318742e+01     
      2       -9.349570e+01    
      3       -9.677810e+01    
      4       1.016995e+02     
 
     NUMBER OF EIGENVALUES CONVERGED UPTO THIS ITERATION = 0
 
     ITERATION 32
      1       9.318181e+01     
      2       -9.341764e+01    
      3       -9.643882e+01    
      4       1.006068e+02     
 
     NUMBER OF EIGENVALUES CONVERGED UPTO THIS ITERATION = 0
 
     ITERATION 33
      1       9.317625e+01     
      2       -9.335475e+01    
      3       -9.613470e+01    
      4       9.965183e+01     
 
     NUMBER OF EIGENVALUES CONVERGED UPTO THIS ITERATION = 0
 
     ITERATION 34
      1       9.317068e+01     
      2       -9.330408e+01    
      3       -9.586377e+01    
      4       9.882127e+01     
 
     NUMBER OF EIGENVALUES CONVERGED UPTO THIS ITERATION = 0
 
     ITERATION 35
      1       9.316502e+01     
      2       -9.326328e+01    
      3       -9.562371e+01    
      4       9.810208e+01     
 
     NUMBER OF EIGENVALUES CONVERGED UPTO THIS ITERATION = 0
 
     ITERATION 36
      1       9.315922e+01     
      2       -9.323041e+01    
      3       -9.541201e+01    
      4       9.748172e+01     
 
     NUMBER OF EIGENVALUES CONVERGED UPTO THIS ITERATION = 0
 
     ITERATION 37
      1       9.315324e+01     
      2       -9.320394e+01    
      3       -9.522608e+01    
      4       9.694842e+01     
 
     NUMBER OF EIGENVALUES CONVERGED UPTO THIS ITERATION = 0
 
     ITERATION 38
      1       9.314705e+01     
      2       -9.318261e+01    
      3       -9.506336e+01    
      4       9.649134e+01     
 
     NUMBER OF EIGENVALUES CONVERGED UPTO THIS ITERATION = 0
 
     ITERATION 39
      1       9.314065e+01     
      2       -9.316541e+01    
      3       -9.492140e+01    
      4       9.610063e+01     
 
     NUMBER OF EIGENVALUES CONVERGED UPTO THIS ITERATION = 0
 
     ITERATION 40
      1       9.313404e+01     
      2       -9.315154e+01    
      3       -9.479787e+01    
      4       9.576744e+01     
 
     NUMBER OF EIGENVALUES CONVERGED UPTO THIS ITERATION = 0
 
     ITERATION 41
      1       9.312725e+01     
      2       -9.314033e+01    
      3       -9.469062e+01    
      4       9.548392e+01     
 
     NUMBER OF EIGENVALUES CONVERGED UPTO THIS ITERATION = 0
 
     ITERATION 42
      1       9.312034e+01     
      2       -9.313127e+01    
      3       -9.459769e+01    
      4       9.524311e+01     
 
     NUMBER OF EIGENVALUES CONVERGED UPTO THIS ITERATION = 0
 
     ITERATION 43
      1       9.311335e+01     
      2       -9.312394e+01    
      3       -9.451729e+01    
      4       9.503892e+01     
 
     NUMBER OF EIGENVALUES CONVERGED UPTO THIS ITERATION = 0
 
     ITERATION 44
      1       9.310637e+01     
      2       -9.311799e+01    
      3       -9.444783e+01    
      4       9.486603e+01     
 
     NUMBER OF EIGENVALUES CONVERGED UPTO THIS ITERATION = 0
 
     ITERATION 45
      1       9.309947e+01     
      2       -9.311316e+01    
      3       -9.438788e+01    
      4       9.471980e+01     
 
     NUMBER OF EIGENVALUES CONVERGED UPTO THIS ITERATION = 0
 
     ITERATION 46
      1       9.309274e+01     
      2       -9.310923e+01    
      3       -9.433620e+01    
      4       9.459626e+01     
 
     NUMBER OF EIGENVALUES CONVERGED UPTO THIS ITERATION = 0
 
     ITERATION 47
      1       9.308627e+01     
      2       -9.310604e+01    
      3       -9.429168e+01    
      4       9.449193e+01     
 
     NUMBER OF EIGENVALUES CONVERGED UPTO THIS ITERATION = 0
 
     ITERATION 48
      1       9.308011e+01     
      2       -9.310343e+01    
      3       -9.425334e+01    
      4       9.440388e+01     
 
     NUMBER OF EIGENVALUES CONVERGED UPTO THIS ITERATION = 0
 
     ITERATION 49
      1       9.307433e+01     
      2       -9.310130e+01    
      3       -9.422036e+01    
      4       9.432957e+01     
 
     NUMBER OF EIGENVALUES CONVERGED UPTO THIS ITERATION = 0
 
     ITERATION 50
      1       9.306897e+01     
      2       -9.309955e+01    
      3       -9.419199e+01    
      4       9.426685e+01     
 
     NUMBER OF EIGENVALUES CONVERGED UPTO THIS ITERATION = 0
 
     ITERATION 51
      1       9.306406e+01     
      2       -9.309812e+01    
      3       -9.416759e+01    
      4       9.421389e+01     
 
     NUMBER OF EIGENVALUES CONVERGED UPTO THIS ITERATION = 0
 
     ITERATION 52
      1       9.305961e+01     
      2       -9.309695e+01    
      3       -9.414662e+01    
      4       9.416916e+01     
 
     NUMBER OF EIGENVALUES CONVERGED UPTO THIS ITERATION = 0
 
     ITERATION 53
      1       9.305561e+01     
      2       -9.309599e+01    
      3       -9.412859e+01    
      4       9.413135e+01     
 
     NUMBER OF EIGENVALUES CONVERGED UPTO THIS ITERATION = 0
 
     ITERATION 54
      1       9.305206e+01     
      2       -9.309520e+01    
      3       9.409937e+01     
      4       -9.411309e+01    
 
     NUMBER OF EIGENVALUES CONVERGED UPTO THIS ITERATION = 0
 
     ITERATION 55
      1       9.304892e+01     
      2       -9.309455e+01    
      3       9.407230e+01     
      4       -9.409978e+01    
 
     NUMBER OF EIGENVALUES CONVERGED UPTO THIS ITERATION = 0
 
     ITERATION 56
      1       9.304616e+01     
      2       -9.309402e+01    
      3       9.404936e+01     
      4       -9.408833e+01    
 
     NUMBER OF EIGENVALUES CONVERGED UPTO THIS ITERATION = 0
 
     ITERATION 57
      1       9.304376e+01     
      2       -9.309358e+01    
      3       9.402992e+01     
      4       -9.407850e+01    
 
     NUMBER OF EIGENVALUES CONVERGED UPTO THIS ITERATION = 0
 
     ITERATION 58
      1       9.304168e+01     
      2       -9.309321e+01    
      3       9.401342e+01     
      4       -9.407005e+01    
 
     NUMBER OF EIGENVALUES CONVERGED UPTO THIS ITERATION = 0
 
     ITERATION 59
      1       9.303988e+01     
      2       -9.309291e+01    
      3       9.399941e+01     
      4       -9.406278e+01    
 
     NUMBER OF EIGENVALUES CONVERGED UPTO THIS ITERATION = 0
 
     ITERATION 60
      1       9.303834e+01     
      2       -9.309267e+01    
      3       9.398751e+01     
      4       -9.405654e+01    
 
     NUMBER OF EIGENVALUES CONVERGED UPTO THIS ITERATION = 0
 
     ITERATION 61
      1       9.303702e+01     
      2       -9.309246e+01    
      3       9.397739e+01     
      4       -9.405118e+01    
 
     NUMBER OF EIGENVALUES CONVERGED UPTO THIS ITERATION = 0
 
     ITERATION 62
      1       9.303589e+01     
      2       -9.309229e+01    
      3       9.396878e+01     
      4       -9.404657e+01    
 
     NUMBER OF EIGENVALUES CONVERGED UPTO THIS ITERATION = 0
 
     ITERATION 63
      1       9.303493e+01     
      2       -9.309215e+01    
      3       9.396145e+01     
      4       -9.404260e+01    
 
     NUMBER OF EIGENVALUES CONVERGED UPTO THIS ITERATION = 0
 
     ITERATION 64
      1       9.303411e+01     
      2       -9.309204e+01    
      3       9.395521e+01     
      4       -9.403920e+01    
 
     NUMBER OF EIGENVALUES CONVERGED UPTO THIS ITERATION = 0
 
     ITERATION 65
      1       9.303342e+01     
      2       -9.309194e+01    
      3       9.394990e+01     
      4       -9.403627e+01    
 
     NUMBER OF EIGENVALUES CONVERGED UPTO THIS ITERATION = 0
 
     ITERATION 66
      1       9.303283e+01     
      2       -9.309186e+01    
      3       9.394537e+01     
      4       -9.403375e+01    
 
     NUMBER OF EIGENVALUES CONVERGED UPTO THIS ITERATION = 1
 
     ITERATION 67
      1       9.303233e+01     
      2       -9.309180e+01    
      3       9.394150e+01     
      4       -9.403158e+01    
 
     NUMBER OF EIGENVALUES CONVERGED UPTO THIS ITERATION = 1
 
     ITERATION 68
      1       9.303191e+01     
      2       -9.309174e+01    
      3       9.393821e+01     
      4       -9.402972e+01    
 
     NUMBER OF EIGENVALUES CONVERGED UPTO THIS ITERATION = 1
 
     ITERATION 69
      1       9.303156e+01     
      2       -9.309170e+01    
      3       9.393540e+01     
      4       -9.402812e+01    
 
     NUMBER OF EIGENVALUES CONVERGED UPTO THIS ITERATION = 1
 
     ITERATION 70
      1       9.303126e+01     
      2       -9.309166e+01    
      3       9.393300e+01     
      4       -9.402674e+01    
 
     NUMBER OF EIGENVALUES CONVERGED UPTO THIS ITERATION = 1
 
     ITERATION 71
      1       9.303101e+01     
      2       -9.309163e+01    
      3       9.393095e+01     
      4       -9.402556e+01    
 
     NUMBER OF EIGENVALUES CONVERGED UPTO THIS ITERATION = 1
 
     ITERATION 72
      1       9.303080e+01     
      2       -9.309160e+01    
      3       9.392920e+01     
      4       -9.402454e+01    
 
     NUMBER OF EIGENVALUES CONVERGED UPTO THIS ITERATION = 1
 
     ITERATION 73
      1       9.303062e+01     
      2       -9.309158e+01    
      3       9.392771e+01     
      4       -9.402366e+01    
 
     NUMBER OF EIGENVALUES CONVERGED UPTO THIS ITERATION = 1
 
     ITERATION 74
      1       9.303047e+01     
      2       -9.309156e+01    
      3       9.392643e+01     
      4       -9.402291e+01    
 
     NUMBER OF EIGENVALUES CONVERGED UPTO THIS ITERATION = 1
 
     ITERATION 75
      1       9.303034e+01     
      2       -9.309155e+01    
      3       9.392534e+01     
      4       -9.402226e+01    
 
     NUMBER OF EIGENVALUES CONVERGED UPTO THIS ITERATION = 1
 
     ITERATION 76
      1       9.303024e+01     
      2       -9.309153e+01    
      3       9.392441e+01     
      4       -9.402170e+01    
 
     NUMBER OF EIGENVALUES CONVERGED UPTO THIS ITERATION = 1
 
     ITERATION 77
      1       9.303015e+01     
      2       -9.309152e+01    
      3       9.392362e+01     
      4       -9.402122e+01    
 
     NUMBER OF EIGENVALUES CONVERGED UPTO THIS ITERATION = 2


          THE ANALYSIS HAS BEEN COMPLETED



     ANALYSIS SUMMARY:
     TOTAL OF          1  INCREMENTS
                       0  CUTBACKS IN AUTOMATIC INCREMENTATION
                       1  ITERATIONS INCLUDING CONTACT ITERATIONS IF PRESENT
                       1  PASSES THROUGH THE EQUATION SOLVER OF WHICH 
                       1  INVOLVE MATRIX DECOMPOSITION, INCLUDING
                       0  DECOMPOSITION(S) OF THE MASS MATRIX
                       1  REORDERING OF EQUATIONS TO MINIMIZE WAVEFRONT
                       0  ADDITIONAL RESIDUAL EVALUATIONS FOR LINE SEARCHES
                       0  ADDITIONAL OPERATOR EVALUATIONS FOR LINE SEARCHES
                     577  WARNING MESSAGES DURING USER INPUT PROCESSING
                       0  WARNING MESSAGES DURING ANALYSIS
                       0  ANALYSIS WARNINGS ARE NUMERICAL PROBLEM MESSAGES
                       0  ANALYSIS WARNINGS ARE NEGATIVE EIGENVALUE MESSAGES
                       0  ERROR MESSAGES



     JOB TIME SUMMARY
       USER TIME (SEC)      =      1.6    
       SYSTEM TIME (SEC)    =     0.20    
       TOTAL CPU TIME (SEC) =      1.8    
       WALLCLOCK TIME (SEC) =            2
       MEMORY PEAK (GB)     =            0
