1

   Abaqus 2022.HF4                                  Date 21-Feb-2023   Time 16:49:58
   For use by BRIGHAM YOUNG UNIVERSITY under license from Dassault Systemes or its subsidiary.

                                                                                 
                                                                                 
 STEP    1     INCREMENT     1     STEP TIME    0.00    


                        S T E P       1     C A L C U L A T I O N   O F   E I G E N V A L U E S

                                            F O R   B U C K L I N G   P R E D I C T I O N



                                                                                          

     THE SUBSPACE ITERATION METHOD IS USED FOR THIS ANALYSIS
     NUMBER OF EIGENVALUES                      2
     MAXIMUM NUMBER OF ITERATIONS                   1000
     NUMBER OF VECTORS IN ITERATION                    4
     THE BUCKLING MODE CONSTRAINTS 
      ARE DEFINED AS LOAD CASE 2
                              ONLY INITIAL STRESS EFFECTS ARE INCLUDED IN THE
                              STIFFNESS MATRIX

     THIS IS A LINEAR PERTURBATION STEP.
     ALL LOADS ARE DEFINED AS CHANGE IN LOAD TO THE REFERENCE STATE

     EXTRAPOLATION WILL NOT BE USED

     CHARACTERISTIC ELEMENT LENGTH      3.43    

     DETAILS REGARDING ACTUAL SOLUTION WAVEFRONT REQUESTED

     DETAILED OUTPUT OF DIAGNOSTICS TO DATABASE REQUESTED

     PRINT OF INCREMENT NUMBER, TIME, ETC., TO THE MESSAGE FILE EVERY     1  INCREMENTS
 
	SYMMETRIC DIRECT SPARSE SOLVER RUNNING ON
 	1 HOST:        1 MPI RANK  x 1 THREAD
 	NUMBER OF EQUATIONS:     1422
 	NUMBER OF RHS:           1
 	NUMBER OF FLOPS:         1.121e+08

     CHECK POINT  START OF SOLVER     

     CHECK POINT  END OF SOLVER       

       ELAPSED USER TIME (SEC)      =   0.0000    
       ELAPSED SYSTEM TIME (SEC)    =   0.0000    
       ELAPSED TOTAL CPU TIME (SEC) =   0.0000    
       ELAPSED WALLCLOCK TIME (SEC) =            0
 
     ITERATION 1
      1       -1.232034e+02    
      2       2.378085e+02     
      3       -8.893507e+02    
      4       -1.952650e+03    
 
     NUMBER OF EIGENVALUES CONVERGED UPTO THIS ITERATION = 0
 
     ITERATION 2
      1       -4.698742e+01    
      2       -8.400847e+01    
      3       1.055283e+02     
      4       3.586862e+02     
 
     NUMBER OF EIGENVALUES CONVERGED UPTO THIS ITERATION = 0
 
     ITERATION 3
      1       -3.331650e+01    
      2       -4.693106e+01    
      3       7.390357e+01     
      4       1.755799e+02     
 
     NUMBER OF EIGENVALUES CONVERGED UPTO THIS ITERATION = 0
 
     ITERATION 4
      1       -2.755369e+01    
      2       -3.667399e+01    
      3       5.947146e+01     
      4       1.357105e+02     
 
     NUMBER OF EIGENVALUES CONVERGED UPTO THIS ITERATION = 0
 
     ITERATION 5
      1       -2.479544e+01    
      2       -3.263123e+01    
      3       5.176377e+01     
      4       1.170705e+02     
 
     NUMBER OF EIGENVALUES CONVERGED UPTO THIS ITERATION = 0
 
     ITERATION 6
      1       -2.341431e+01    
      2       -3.060460e+01    
      3       4.723783e+01     
      4       1.048521e+02     
 
     NUMBER OF EIGENVALUES CONVERGED UPTO THIS ITERATION = 0
 
     ITERATION 7
      1       -2.266642e+01    
      2       -2.938830e+01    
      3       4.429031e+01     
      4       9.477256e+01     
 
     NUMBER OF EIGENVALUES CONVERGED UPTO THIS ITERATION = 0
 
     ITERATION 8
      1       -2.223316e+01    
      2       -2.854973e+01    
      3       4.211998e+01     
      4       8.541868e+01     
 
     NUMBER OF EIGENVALUES CONVERGED UPTO THIS ITERATION = 0
 
     ITERATION 9
      1       -2.196995e+01    
      2       -2.790883e+01    
      3       4.030519e+01     
      4       7.664824e+01     
 
     NUMBER OF EIGENVALUES CONVERGED UPTO THIS ITERATION = 0
 
     ITERATION 10
      1       -2.180486e+01    
      2       -2.738366e+01    
      3       3.861744e+01     
      4       6.878605e+01     
 
     NUMBER OF EIGENVALUES CONVERGED UPTO THIS ITERATION = 0
 
     ITERATION 11
      1       -2.169911e+01    
      2       -2.693471e+01    
      3       3.693955e+01     
      4       6.215064e+01     
 
     NUMBER OF EIGENVALUES CONVERGED UPTO THIS ITERATION = 0
 
     ITERATION 12
      1       -2.163043e+01    
      2       -2.654187e+01    
      3       3.523633e+01     
      4       5.685870e+01     
 
     NUMBER OF EIGENVALUES CONVERGED UPTO THIS ITERATION = 0
 
     ITERATION 13
      1       -2.158540e+01    
      2       -2.619413e+01    
      3       3.354149e+01     
      4       5.281569e+01     
 
     NUMBER OF EIGENVALUES CONVERGED UPTO THIS ITERATION = 0
 
     ITERATION 14
      1       -2.155563e+01    
      2       -2.588474e+01    
      3       3.193051e+01     
      4       4.979650e+01     
 
     NUMBER OF EIGENVALUES CONVERGED UPTO THIS ITERATION = 0
 
     ITERATION 15
      1       -2.153575e+01    
      2       -2.560896e+01    
      3       3.047798e+01     
      4       4.754496e+01     
 
     NUMBER OF EIGENVALUES CONVERGED UPTO THIS ITERATION = 0
 
     ITERATION 16
      1       -2.152231e+01    
      2       -2.536308e+01    
      3       2.922695e+01     
      4       4.584126e+01     
 
     NUMBER OF EIGENVALUES CONVERGED UPTO THIS ITERATION = 0
 
     ITERATION 17
      1       -2.151309e+01    
      2       -2.514391e+01    
      3       2.818489e+01     
      4       4.452334e+01     
 
     NUMBER OF EIGENVALUES CONVERGED UPTO THIS ITERATION = 0
 
     ITERATION 18
      1       -2.150663e+01    
      2       -2.494866e+01    
      3       2.733532e+01     
      4       4.348013e+01     
 
     NUMBER OF EIGENVALUES CONVERGED UPTO THIS ITERATION = 0
 
     ITERATION 19
      1       -2.150203e+01    
      2       -2.477481e+01    
      3       2.665097e+01     
      4       4.263709e+01     
 
     NUMBER OF EIGENVALUES CONVERGED UPTO THIS ITERATION = 0
 
     ITERATION 20
      1       -2.149868e+01    
      2       -2.462011e+01    
      3       2.610257e+01     
      4       4.194358e+01     
 
     NUMBER OF EIGENVALUES CONVERGED UPTO THIS ITERATION = 0
 
     ITERATION 21
      1       -2.149620e+01    
      2       -2.448254e+01    
      3       2.566329e+01     
      4       4.136416e+01     
 
     NUMBER OF EIGENVALUES CONVERGED UPTO THIS ITERATION = 0
 
     ITERATION 22
      1       -2.149434e+01    
      2       -2.436029e+01    
      3       2.531046e+01     
      4       4.087309e+01     
 
     NUMBER OF EIGENVALUES CONVERGED UPTO THIS ITERATION = 0
 
     ITERATION 23
      1       -2.149292e+01    
      2       -2.425173e+01    
      3       2.502572e+01     
      4       4.045098e+01     
 
     NUMBER OF EIGENVALUES CONVERGED UPTO THIS ITERATION = 0
 
     ITERATION 24
      1       -2.149183e+01    
      2       -2.415539e+01    
      3       2.479456e+01     
      4       4.008274e+01     
 
     NUMBER OF EIGENVALUES CONVERGED UPTO THIS ITERATION = 0
 
     ITERATION 25
      1       -2.149099e+01    
      2       -2.406997e+01    
      3       2.460570e+01     
      4       3.975638e+01     
 
     NUMBER OF EIGENVALUES CONVERGED UPTO THIS ITERATION = 0
 
     ITERATION 26
      1       -2.149034e+01    
      2       -2.399425e+01    
      3       2.445042e+01     
      4       3.946220e+01     
 
     NUMBER OF EIGENVALUES CONVERGED UPTO THIS ITERATION = 0
 
     ITERATION 27
      1       -2.148983e+01    
      2       -2.392717e+01    
      3       2.432196e+01     
      4       3.919233e+01     
 
     NUMBER OF EIGENVALUES CONVERGED UPTO THIS ITERATION = 0
 
     ITERATION 28
      1       -2.148943e+01    
      2       -2.386776e+01    
      3       2.421510e+01     
      4       3.894035e+01     
 
     NUMBER OF EIGENVALUES CONVERGED UPTO THIS ITERATION = 0
 
     ITERATION 29
      1       -2.148912e+01    
      2       -2.381512e+01    
      3       2.412574e+01     
      4       3.870107e+01     
 
     NUMBER OF EIGENVALUES CONVERGED UPTO THIS ITERATION = 0
 
     ITERATION 30
      1       -2.148888e+01    
      2       -2.376848e+01    
      3       2.405071e+01     
      4       3.847033e+01     
 
     NUMBER OF EIGENVALUES CONVERGED UPTO THIS ITERATION = 0
 
     ITERATION 31
      1       -2.148870e+01    
      2       -2.372711e+01    
      3       2.398744e+01     
      4       3.824485e+01     
 
     NUMBER OF EIGENVALUES CONVERGED UPTO THIS ITERATION = 0
 
     ITERATION 32
      1       -2.148855e+01    
      2       -2.369038e+01    
      3       2.393393e+01     
      4       3.802205e+01     
 
     NUMBER OF EIGENVALUES CONVERGED UPTO THIS ITERATION = 0
 
     ITERATION 33
      1       -2.148844e+01    
      2       -2.365772e+01    
      3       2.388854e+01     
      4       3.779999e+01     
 
     NUMBER OF EIGENVALUES CONVERGED UPTO THIS ITERATION = 0
 
     ITERATION 34
      1       -2.148835e+01    
      2       -2.362863e+01    
      3       2.384994e+01     
      4       3.757724e+01     
 
     NUMBER OF EIGENVALUES CONVERGED UPTO THIS ITERATION = 0
 
     ITERATION 35
      1       -2.148827e+01    
      2       -2.360266e+01    
      3       2.381704e+01     
      4       3.735279e+01     
 
     NUMBER OF EIGENVALUES CONVERGED UPTO THIS ITERATION = 0
 
     ITERATION 36
      1       -2.148822e+01    
      2       -2.357941e+01    
      3       2.378896e+01     
      4       3.712598e+01     
 
     NUMBER OF EIGENVALUES CONVERGED UPTO THIS ITERATION = 0
 
     ITERATION 37
      1       -2.148818e+01    
      2       -2.355854e+01    
      3       2.376494e+01     
      4       3.689641e+01     
 
     NUMBER OF EIGENVALUES CONVERGED UPTO THIS ITERATION = 0
 
     ITERATION 38
      1       -2.148814e+01    
      2       -2.353974e+01    
      3       2.374437e+01     
      4       3.666394e+01     
 
     NUMBER OF EIGENVALUES CONVERGED UPTO THIS ITERATION = 0
 
     ITERATION 39
      1       -2.148811e+01    
      2       -2.352275e+01    
      3       2.372673e+01     
      4       3.642857e+01     
 
     NUMBER OF EIGENVALUES CONVERGED UPTO THIS ITERATION = 0
 
     ITERATION 40
      1       -2.148809e+01    
      2       -2.350733e+01    
      3       2.371158e+01     
      4       3.619044e+01     
 
     NUMBER OF EIGENVALUES CONVERGED UPTO THIS ITERATION = 0
 
     ITERATION 41
      1       -2.148808e+01    
      2       -2.349329e+01    
      3       2.369856e+01     
      4       3.594978e+01     
 
     NUMBER OF EIGENVALUES CONVERGED UPTO THIS ITERATION = 1
 
     ITERATION 42
      1       -2.148806e+01    
      2       -2.348045e+01    
      3       2.368736e+01     
      4       3.570692e+01     
 
     NUMBER OF EIGENVALUES CONVERGED UPTO THIS ITERATION = 1
 
     ITERATION 43
      1       -2.148805e+01    
      2       -2.346865e+01    
      3       2.367771e+01     
      4       3.546222e+01     
 
     NUMBER OF EIGENVALUES CONVERGED UPTO THIS ITERATION = 1
 
     ITERATION 44
      1       -2.148804e+01    
      2       -2.345778e+01    
      3       2.366939e+01     
      4       3.521607e+01     
 
     NUMBER OF EIGENVALUES CONVERGED UPTO THIS ITERATION = 1
 
     ITERATION 45
      1       -2.148803e+01    
      2       -2.344772e+01    
      3       2.366220e+01     
      4       3.496888e+01     
 
     NUMBER OF EIGENVALUES CONVERGED UPTO THIS ITERATION = 1
 
     ITERATION 46
      1       -2.148803e+01    
      2       -2.343836e+01    
      3       2.365600e+01     
      4       3.472108e+01     
 
     NUMBER OF EIGENVALUES CONVERGED UPTO THIS ITERATION = 1
 
     ITERATION 47
      1       -2.148802e+01    
      2       -2.342964e+01    
      3       2.365063e+01     
      4       3.447308e+01     
 
     NUMBER OF EIGENVALUES CONVERGED UPTO THIS ITERATION = 1
 
     ITERATION 48
      1       -2.148802e+01    
      2       -2.342147e+01    
      3       2.364599e+01     
      4       3.422530e+01     
 
     NUMBER OF EIGENVALUES CONVERGED UPTO THIS ITERATION = 1
 
     ITERATION 49
      1       -2.148802e+01    
      2       -2.341379e+01    
      3       2.364196e+01     
      4       3.397812e+01     
 
     NUMBER OF EIGENVALUES CONVERGED UPTO THIS ITERATION = 1
 
     ITERATION 50
      1       -2.148802e+01    
      2       -2.340656e+01    
      3       2.363847e+01     
      4       3.373193e+01     
 
     NUMBER OF EIGENVALUES CONVERGED UPTO THIS ITERATION = 1
 
     ITERATION 51
      1       -2.148801e+01    
      2       -2.339972e+01    
      3       2.363544e+01     
      4       3.348709e+01     
 
     NUMBER OF EIGENVALUES CONVERGED UPTO THIS ITERATION = 1
 
     ITERATION 52
      1       -2.148801e+01    
      2       -2.339324e+01    
      3       2.363280e+01     
      4       3.324393e+01     
 
     NUMBER OF EIGENVALUES CONVERGED UPTO THIS ITERATION = 1
 
     ITERATION 53
      1       -2.148801e+01    
      2       -2.338708e+01    
      3       2.363050e+01     
      4       3.300278e+01     
 
     NUMBER OF EIGENVALUES CONVERGED UPTO THIS ITERATION = 1
 
     ITERATION 54
      1       -2.148801e+01    
      2       -2.338122e+01    
      3       2.362850e+01     
      4       3.276392e+01     
 
     NUMBER OF EIGENVALUES CONVERGED UPTO THIS ITERATION = 1
 
     ITERATION 55
      1       -2.148801e+01    
      2       -2.337563e+01    
      3       2.362675e+01     
      4       3.252763e+01     
 
     NUMBER OF EIGENVALUES CONVERGED UPTO THIS ITERATION = 1
 
     ITERATION 56
      1       -2.148801e+01    
      2       -2.337029e+01    
      3       2.362521e+01     
      4       3.229414e+01     
 
     NUMBER OF EIGENVALUES CONVERGED UPTO THIS ITERATION = 1
 
     ITERATION 57
      1       -2.148801e+01    
      2       -2.336517e+01    
      3       2.362386e+01     
      4       3.206370e+01     
 
     NUMBER OF EIGENVALUES CONVERGED UPTO THIS ITERATION = 1
 
     ITERATION 58
      1       -2.148801e+01    
      2       -2.336027e+01    
      3       2.362268e+01     
      4       3.183648e+01     
 
     NUMBER OF EIGENVALUES CONVERGED UPTO THIS ITERATION = 1
 
     ITERATION 59
      1       -2.148801e+01    
      2       -2.335557e+01    
      3       2.362163e+01     
      4       3.161268e+01     
 
     NUMBER OF EIGENVALUES CONVERGED UPTO THIS ITERATION = 1
 
     ITERATION 60
      1       -2.148801e+01    
      2       -2.335106e+01    
      3       2.362071e+01     
      4       3.139246e+01     
 
     NUMBER OF EIGENVALUES CONVERGED UPTO THIS ITERATION = 1
 
     ITERATION 61
      1       -2.148801e+01    
      2       -2.334673e+01    
      3       2.361989e+01     
      4       3.117595e+01     
 
     NUMBER OF EIGENVALUES CONVERGED UPTO THIS ITERATION = 1
 
     ITERATION 62
      1       -2.148801e+01    
      2       -2.334256e+01    
      3       2.361916e+01     
      4       3.096328e+01     
 
     NUMBER OF EIGENVALUES CONVERGED UPTO THIS ITERATION = 1
 
     ITERATION 63
      1       -2.148800e+01    
      2       -2.333856e+01    
      3       2.361850e+01     
      4       3.075455e+01     
 
     NUMBER OF EIGENVALUES CONVERGED UPTO THIS ITERATION = 1
 
     ITERATION 64
      1       -2.148800e+01    
      2       -2.333470e+01    
      3       2.361791e+01     
      4       3.054984e+01     
 
     NUMBER OF EIGENVALUES CONVERGED UPTO THIS ITERATION = 1
 
     ITERATION 65
      1       -2.148800e+01    
      2       -2.333099e+01    
      3       2.361738e+01     
      4       3.034923e+01     
 
     NUMBER OF EIGENVALUES CONVERGED UPTO THIS ITERATION = 1
 
     ITERATION 66
      1       -2.148800e+01    
      2       -2.332742e+01    
      3       2.361690e+01     
      4       3.015278e+01     
 
     NUMBER OF EIGENVALUES CONVERGED UPTO THIS ITERATION = 1
 
     ITERATION 67
      1       -2.148800e+01    
      2       -2.332398e+01    
      3       2.361645e+01     
      4       2.996052e+01     
 
     NUMBER OF EIGENVALUES CONVERGED UPTO THIS ITERATION = 1
 
     ITERATION 68
      1       -2.148800e+01    
      2       -2.332067e+01    
      3       2.361605e+01     
      4       2.977248e+01     
 
     NUMBER OF EIGENVALUES CONVERGED UPTO THIS ITERATION = 1
 
     ITERATION 69
      1       -2.148800e+01    
      2       -2.331748e+01    
      3       2.361567e+01     
      4       2.958869e+01     
 
     NUMBER OF EIGENVALUES CONVERGED UPTO THIS ITERATION = 1
 
     ITERATION 70
      1       -2.148800e+01    
      2       -2.331441e+01    
      3       2.361532e+01     
      4       2.940914e+01     
 
     NUMBER OF EIGENVALUES CONVERGED UPTO THIS ITERATION = 1
 
     ITERATION 71
      1       -2.148800e+01    
      2       -2.331146e+01    
      3       2.361499e+01     
      4       2.923384e+01     
 
     NUMBER OF EIGENVALUES CONVERGED UPTO THIS ITERATION = 1
 
     ITERATION 72
      1       -2.148800e+01    
      2       -2.330861e+01    
      3       2.361468e+01     
      4       2.906277e+01     
 
     NUMBER OF EIGENVALUES CONVERGED UPTO THIS ITERATION = 1
 
     ITERATION 73
      1       -2.148800e+01    
      2       -2.330588e+01    
      3       2.361439e+01     
      4       2.889592e+01     
 
     NUMBER OF EIGENVALUES CONVERGED UPTO THIS ITERATION = 1
 
     ITERATION 74
      1       -2.148800e+01    
      2       -2.330324e+01    
      3       2.361411e+01     
      4       2.873325e+01     
 
     NUMBER OF EIGENVALUES CONVERGED UPTO THIS ITERATION = 1
 
     ITERATION 75
      1       -2.148800e+01    
      2       -2.330071e+01    
      3       2.361384e+01     
      4       2.857472e+01     
 
     NUMBER OF EIGENVALUES CONVERGED UPTO THIS ITERATION = 1
 
     ITERATION 76
      1       -2.148800e+01    
      2       -2.329827e+01    
      3       2.361358e+01     
      4       2.842031e+01     
 
     NUMBER OF EIGENVALUES CONVERGED UPTO THIS ITERATION = 1
 
     ITERATION 77
      1       -2.148800e+01    
      2       -2.329593e+01    
      3       2.361332e+01     
      4       2.826995e+01     
 
     NUMBER OF EIGENVALUES CONVERGED UPTO THIS ITERATION = 1
 
     ITERATION 78
      1       -2.148800e+01    
      2       -2.329368e+01    
      3       2.361307e+01     
      4       2.812360e+01     
 
     NUMBER OF EIGENVALUES CONVERGED UPTO THIS ITERATION = 1
 
     ITERATION 79
      1       -2.148800e+01    
      2       -2.329151e+01    
      3       2.361283e+01     
      4       2.798120e+01     
 
     NUMBER OF EIGENVALUES CONVERGED UPTO THIS ITERATION = 1
 
     ITERATION 80
      1       -2.148800e+01    
      2       -2.328943e+01    
      3       2.361258e+01     
      4       2.784269e+01     
 
     NUMBER OF EIGENVALUES CONVERGED UPTO THIS ITERATION = 1
 
     ITERATION 81
      1       -2.148800e+01    
      2       -2.328743e+01    
      3       2.361234e+01     
      4       2.770800e+01     
 
     NUMBER OF EIGENVALUES CONVERGED UPTO THIS ITERATION = 1
 
     ITERATION 82
      1       -2.148800e+01    
      2       -2.328551e+01    
      3       2.361210e+01     
      4       2.757708e+01     
 
     NUMBER OF EIGENVALUES CONVERGED UPTO THIS ITERATION = 1
 
     ITERATION 83
      1       -2.148800e+01    
      2       -2.328367e+01    
      3       2.361186e+01     
      4       2.744984e+01     
 
     NUMBER OF EIGENVALUES CONVERGED UPTO THIS ITERATION = 1
 
     ITERATION 84
      1       -2.148800e+01    
      2       -2.328190e+01    
      3       2.361162e+01     
      4       2.732623e+01     
 
     NUMBER OF EIGENVALUES CONVERGED UPTO THIS ITERATION = 1
 
     ITERATION 85
      1       -2.148800e+01    
      2       -2.328020e+01    
      3       2.361138e+01     
      4       2.720617e+01     
 
     NUMBER OF EIGENVALUES CONVERGED UPTO THIS ITERATION = 1
 
     ITERATION 86
      1       -2.148800e+01    
      2       -2.327857e+01    
      3       2.361114e+01     
      4       2.708958e+01     
 
     NUMBER OF EIGENVALUES CONVERGED UPTO THIS ITERATION = 1
 
     ITERATION 87
      1       -2.148800e+01    
      2       -2.327700e+01    
      3       2.361089e+01     
      4       2.697638e+01     
 
     NUMBER OF EIGENVALUES CONVERGED UPTO THIS ITERATION = 1
 
     ITERATION 88
      1       -2.148800e+01    
      2       -2.327550e+01    
      3       2.361065e+01     
      4       2.686652e+01     
 
     NUMBER OF EIGENVALUES CONVERGED UPTO THIS ITERATION = 1
 
     ITERATION 89
      1       -2.148800e+01    
      2       -2.327406e+01    
      3       2.361039e+01     
      4       2.675989e+01     
 
     NUMBER OF EIGENVALUES CONVERGED UPTO THIS ITERATION = 1
 
     ITERATION 90
      1       -2.148800e+01    
      2       -2.327268e+01    
      3       2.361014e+01     
      4       2.665645e+01     
 
     NUMBER OF EIGENVALUES CONVERGED UPTO THIS ITERATION = 1
 
     ITERATION 91
      1       -2.148800e+01    
      2       -2.327136e+01    
      3       2.360988e+01     
      4       2.655609e+01     
 
     NUMBER OF EIGENVALUES CONVERGED UPTO THIS ITERATION = 1
 
     ITERATION 92
      1       -2.148800e+01    
      2       -2.327009e+01    
      3       2.360962e+01     
      4       2.645876e+01     
 
     NUMBER OF EIGENVALUES CONVERGED UPTO THIS ITERATION = 1
 
     ITERATION 93
      1       -2.148800e+01    
      2       -2.326887e+01    
      3       2.360935e+01     
      4       2.636436e+01     
 
     NUMBER OF EIGENVALUES CONVERGED UPTO THIS ITERATION = 1
 
     ITERATION 94
      1       -2.148800e+01    
      2       -2.326771e+01    
      3       2.360908e+01     
      4       2.627284e+01     
 
     NUMBER OF EIGENVALUES CONVERGED UPTO THIS ITERATION = 1
 
     ITERATION 95
      1       -2.148800e+01    
      2       -2.326659e+01    
      3       2.360880e+01     
      4       2.618411e+01     
 
     NUMBER OF EIGENVALUES CONVERGED UPTO THIS ITERATION = 1
 
     ITERATION 96
      1       -2.148800e+01    
      2       -2.326553e+01    
      3       2.360852e+01     
      4       2.609810e+01     
 
     NUMBER OF EIGENVALUES CONVERGED UPTO THIS ITERATION = 1
 
     ITERATION 97
      1       -2.148800e+01    
      2       -2.326450e+01    
      3       2.360823e+01     
      4       2.601474e+01     
 
     NUMBER OF EIGENVALUES CONVERGED UPTO THIS ITERATION = 1
 
     ITERATION 98
      1       -2.148800e+01    
      2       -2.326352e+01    
      3       2.360793e+01     
      4       2.593396e+01     
 
     NUMBER OF EIGENVALUES CONVERGED UPTO THIS ITERATION = 1
 
     ITERATION 99
      1       -2.148800e+01    
      2       -2.326259e+01    
      3       2.360763e+01     
      4       2.585568e+01     
 
     NUMBER OF EIGENVALUES CONVERGED UPTO THIS ITERATION = 1
 
     ITERATION 100
      1       -2.148800e+01    
      2       -2.326169e+01    
      3       2.360732e+01     
      4       2.577984e+01     
 
     NUMBER OF EIGENVALUES CONVERGED UPTO THIS ITERATION = 1
 
     ITERATION 101
      1       -2.148800e+01    
      2       -2.326083e+01    
      3       2.360701e+01     
      4       2.570637e+01     
 
     NUMBER OF EIGENVALUES CONVERGED UPTO THIS ITERATION = 1
 
     ITERATION 102
      1       -2.148800e+01    
      2       -2.326001e+01    
      3       2.360668e+01     
      4       2.563519e+01     
 
     NUMBER OF EIGENVALUES CONVERGED UPTO THIS ITERATION = 1
 
     ITERATION 103
      1       -2.148800e+01    
      2       -2.325922e+01    
      3       2.360635e+01     
      4       2.556626e+01     
 
     NUMBER OF EIGENVALUES CONVERGED UPTO THIS ITERATION = 1
 
     ITERATION 104
      1       -2.148800e+01    
      2       -2.325847e+01    
      3       2.360602e+01     
      4       2.549949e+01     
 
     NUMBER OF EIGENVALUES CONVERGED UPTO THIS ITERATION = 1
 
     ITERATION 105
      1       -2.148800e+01    
      2       -2.325775e+01    
      3       2.360567e+01     
      4       2.543483e+01     
 
     NUMBER OF EIGENVALUES CONVERGED UPTO THIS ITERATION = 1
 
     ITERATION 106
      1       -2.148800e+01    
      2       -2.325706e+01    
      3       2.360532e+01     
      4       2.537222e+01     
 
     NUMBER OF EIGENVALUES CONVERGED UPTO THIS ITERATION = 1
 
     ITERATION 107
      1       -2.148800e+01    
      2       -2.325640e+01    
      3       2.360495e+01     
      4       2.531160e+01     
 
     NUMBER OF EIGENVALUES CONVERGED UPTO THIS ITERATION = 1
 
     ITERATION 108
      1       -2.148800e+01    
      2       -2.325578e+01    
      3       2.360458e+01     
      4       2.525290e+01     
 
     NUMBER OF EIGENVALUES CONVERGED UPTO THIS ITERATION = 1
 
     ITERATION 109
      1       -2.148800e+01    
      2       -2.325517e+01    
      3       2.360420e+01     
      4       2.519607e+01     
 
     NUMBER OF EIGENVALUES CONVERGED UPTO THIS ITERATION = 1
 
     ITERATION 110
      1       -2.148800e+01    
      2       -2.325460e+01    
      3       2.360381e+01     
      4       2.514106e+01     
 
     NUMBER OF EIGENVALUES CONVERGED UPTO THIS ITERATION = 1
 
     ITERATION 111
      1       -2.148800e+01    
      2       -2.325405e+01    
      3       2.360341e+01     
      4       2.508781e+01     
 
     NUMBER OF EIGENVALUES CONVERGED UPTO THIS ITERATION = 1
 
     ITERATION 112
      1       -2.148800e+01    
      2       -2.325352e+01    
      3       2.360300e+01     
      4       2.503627e+01     
 
     NUMBER OF EIGENVALUES CONVERGED UPTO THIS ITERATION = 1
 
     ITERATION 113
      1       -2.148800e+01    
      2       -2.325302e+01    
      3       2.360258e+01     
      4       2.498638e+01     
 
     NUMBER OF EIGENVALUES CONVERGED UPTO THIS ITERATION = 1
 
     ITERATION 114
      1       -2.148800e+01    
      2       -2.325254e+01    
      3       2.360215e+01     
      4       2.493810e+01     
 
     NUMBER OF EIGENVALUES CONVERGED UPTO THIS ITERATION = 1
 
     ITERATION 115
      1       -2.148800e+01    
      2       -2.325208e+01    
      3       2.360170e+01     
      4       2.489137e+01     
 
     NUMBER OF EIGENVALUES CONVERGED UPTO THIS ITERATION = 1
 
     ITERATION 116
      1       -2.148800e+01    
      2       -2.325165e+01    
      3       2.360124e+01     
      4       2.484616e+01     
 
     NUMBER OF EIGENVALUES CONVERGED UPTO THIS ITERATION = 1
 
     ITERATION 117
      1       -2.148800e+01    
      2       -2.325123e+01    
      3       2.360078e+01     
      4       2.480241e+01     
 
     NUMBER OF EIGENVALUES CONVERGED UPTO THIS ITERATION = 1
 
     ITERATION 118
      1       -2.148800e+01    
      2       -2.325083e+01    
      3       2.360029e+01     
      4       2.476007e+01     
 
     NUMBER OF EIGENVALUES CONVERGED UPTO THIS ITERATION = 1
 
     ITERATION 119
      1       -2.148800e+01    
      2       -2.325045e+01    
      3       2.359980e+01     
      4       2.471911e+01     
 
     NUMBER OF EIGENVALUES CONVERGED UPTO THIS ITERATION = 1
 
     ITERATION 120
      1       -2.148800e+01    
      2       -2.325008e+01    
      3       2.359929e+01     
      4       2.467948e+01     
 
     NUMBER OF EIGENVALUES CONVERGED UPTO THIS ITERATION = 1
 
     ITERATION 121
      1       -2.148800e+01    
      2       -2.324973e+01    
      3       2.359877e+01     
      4       2.464115e+01     
 
     NUMBER OF EIGENVALUES CONVERGED UPTO THIS ITERATION = 1
 
     ITERATION 122
      1       -2.148800e+01    
      2       -2.324940e+01    
      3       2.359823e+01     
      4       2.460406e+01     
 
     NUMBER OF EIGENVALUES CONVERGED UPTO THIS ITERATION = 1
 
     ITERATION 123
      1       -2.148800e+01    
      2       -2.324908e+01    
      3       2.359767e+01     
      4       2.456819e+01     
 
     NUMBER OF EIGENVALUES CONVERGED UPTO THIS ITERATION = 1
 
     ITERATION 124
      1       -2.148800e+01    
      2       -2.324878e+01    
      3       2.359710e+01     
      4       2.453350e+01     
 
     NUMBER OF EIGENVALUES CONVERGED UPTO THIS ITERATION = 1
 
     ITERATION 125
      1       -2.148800e+01    
      2       -2.324849e+01    
      3       2.359652e+01     
      4       2.449994e+01     
 
     NUMBER OF EIGENVALUES CONVERGED UPTO THIS ITERATION = 1
 
     ITERATION 126
      1       -2.148800e+01    
      2       -2.324821e+01    
      3       2.359591e+01     
      4       2.446750e+01     
 
     NUMBER OF EIGENVALUES CONVERGED UPTO THIS ITERATION = 1
 
     ITERATION 127
      1       -2.148800e+01    
      2       -2.324795e+01    
      3       2.359529e+01     
      4       2.443612e+01     
 
     NUMBER OF EIGENVALUES CONVERGED UPTO THIS ITERATION = 1
 
     ITERATION 128
      1       -2.148800e+01    
      2       -2.324770e+01    
      3       2.359465e+01     
      4       2.440578e+01     
 
     NUMBER OF EIGENVALUES CONVERGED UPTO THIS ITERATION = 1
 
     ITERATION 129
      1       -2.148800e+01    
      2       -2.324745e+01    
      3       2.359398e+01     
      4       2.437644e+01     
 
     NUMBER OF EIGENVALUES CONVERGED UPTO THIS ITERATION = 1
 
     ITERATION 130
      1       -2.148800e+01    
      2       -2.324722e+01    
      3       2.359330e+01     
      4       2.434808e+01     
 
     NUMBER OF EIGENVALUES CONVERGED UPTO THIS ITERATION = 1
 
     ITERATION 131
      1       -2.148800e+01    
      2       -2.324700e+01    
      3       2.359260e+01     
      4       2.432067e+01     
 
     NUMBER OF EIGENVALUES CONVERGED UPTO THIS ITERATION = 1
 
     ITERATION 132
      1       -2.148800e+01    
      2       -2.324679e+01    
      3       2.359187e+01     
      4       2.429417e+01     
 
     NUMBER OF EIGENVALUES CONVERGED UPTO THIS ITERATION = 1
 
     ITERATION 133
      1       -2.148800e+01    
      2       -2.324659e+01    
      3       2.359112e+01     
      4       2.426857e+01     
 
     NUMBER OF EIGENVALUES CONVERGED UPTO THIS ITERATION = 1
 
     ITERATION 134
      1       -2.148800e+01    
      2       -2.324640e+01    
      3       2.359035e+01     
      4       2.424382e+01     
 
     NUMBER OF EIGENVALUES CONVERGED UPTO THIS ITERATION = 1
 
     ITERATION 135
      1       -2.148800e+01    
      2       -2.324622e+01    
      3       2.358955e+01     
      4       2.421992e+01     
 
     NUMBER OF EIGENVALUES CONVERGED UPTO THIS ITERATION = 1
 
     ITERATION 136
      1       -2.148800e+01    
      2       -2.324605e+01    
      3       2.358873e+01     
      4       2.419682e+01     
 
     NUMBER OF EIGENVALUES CONVERGED UPTO THIS ITERATION = 1
 
     ITERATION 137
      1       -2.148800e+01    
      2       -2.324588e+01    
      3       2.358787e+01     
      4       2.417451e+01     
 
     NUMBER OF EIGENVALUES CONVERGED UPTO THIS ITERATION = 1
 
     ITERATION 138
      1       -2.148800e+01    
      2       -2.324572e+01    
      3       2.358699e+01     
      4       2.415297e+01     
 
     NUMBER OF EIGENVALUES CONVERGED UPTO THIS ITERATION = 1
 
     ITERATION 139
      1       -2.148800e+01    
      2       -2.324557e+01    
      3       2.358608e+01     
      4       2.413216e+01     
 
     NUMBER OF EIGENVALUES CONVERGED UPTO THIS ITERATION = 1
 
     ITERATION 140
      1       -2.148800e+01    
      2       -2.324543e+01    
      3       2.358514e+01     
      4       2.411208e+01     
 
     NUMBER OF EIGENVALUES CONVERGED UPTO THIS ITERATION = 1
 
     ITERATION 141
      1       -2.148800e+01    
      2       -2.324529e+01    
      3       2.358417e+01     
      4       2.409270e+01     
 
     NUMBER OF EIGENVALUES CONVERGED UPTO THIS ITERATION = 1
 
     ITERATION 142
      1       -2.148800e+01    
      2       -2.324516e+01    
      3       2.358317e+01     
      4       2.407399e+01     
 
     NUMBER OF EIGENVALUES CONVERGED UPTO THIS ITERATION = 1
 
     ITERATION 143
      1       -2.148800e+01    
      2       -2.324503e+01    
      3       2.358213e+01     
      4       2.405594e+01     
 
     NUMBER OF EIGENVALUES CONVERGED UPTO THIS ITERATION = 1
 
     ITERATION 144
      1       -2.148800e+01    
      2       -2.324491e+01    
      3       2.358105e+01     
      4       2.403853e+01     
 
     NUMBER OF EIGENVALUES CONVERGED UPTO THIS ITERATION = 1
 
     ITERATION 145
      1       -2.148800e+01    
      2       -2.324480e+01    
      3       2.357994e+01     
      4       2.402175e+01     
 
     NUMBER OF EIGENVALUES CONVERGED UPTO THIS ITERATION = 1
 
     ITERATION 146
      1       -2.148800e+01    
      2       -2.324469e+01    
      3       2.357879e+01     
      4       2.400557e+01     
 
     NUMBER OF EIGENVALUES CONVERGED UPTO THIS ITERATION = 1
 
     ITERATION 147
      1       -2.148800e+01    
      2       -2.324458e+01    
      3       2.357760e+01     
      4       2.398997e+01     
 
     NUMBER OF EIGENVALUES CONVERGED UPTO THIS ITERATION = 1
 
     ITERATION 148
      1       -2.148800e+01    
      2       -2.324448e+01    
      3       2.357637e+01     
      4       2.397495e+01     
 
     NUMBER OF EIGENVALUES CONVERGED UPTO THIS ITERATION = 1
 
     ITERATION 149
      1       -2.148800e+01    
      2       -2.324439e+01    
      3       2.357510e+01     
      4       2.396048e+01     
 
     NUMBER OF EIGENVALUES CONVERGED UPTO THIS ITERATION = 1
 
     ITERATION 150
      1       -2.148800e+01    
      2       -2.324430e+01    
      3       2.357378e+01     
      4       2.394655e+01     
 
     NUMBER OF EIGENVALUES CONVERGED UPTO THIS ITERATION = 1
 
     ITERATION 151
      1       -2.148800e+01    
      2       -2.324421e+01    
      3       2.357242e+01     
      4       2.393315e+01     
 
     NUMBER OF EIGENVALUES CONVERGED UPTO THIS ITERATION = 1
 
     ITERATION 152
      1       -2.148800e+01    
      2       -2.324413e+01    
      3       2.357102e+01     
      4       2.392025e+01     
 
     NUMBER OF EIGENVALUES CONVERGED UPTO THIS ITERATION = 1
 
     ITERATION 153
      1       -2.148800e+01    
      2       -2.324405e+01    
      3       2.356956e+01     
      4       2.390786e+01     
 
     NUMBER OF EIGENVALUES CONVERGED UPTO THIS ITERATION = 1
 
     ITERATION 154
      1       -2.148800e+01    
      2       -2.324398e+01    
      3       2.356806e+01     
      4       2.389594e+01     
 
     NUMBER OF EIGENVALUES CONVERGED UPTO THIS ITERATION = 1
 
     ITERATION 155
      1       -2.148800e+01    
      2       -2.324391e+01    
      3       2.356652e+01     
      4       2.388450e+01     
 
     NUMBER OF EIGENVALUES CONVERGED UPTO THIS ITERATION = 1
 
     ITERATION 156
      1       -2.148800e+01    
      2       -2.324384e+01    
      3       2.356492e+01     
      4       2.387351e+01     
 
     NUMBER OF EIGENVALUES CONVERGED UPTO THIS ITERATION = 1
 
     ITERATION 157
      1       -2.148800e+01    
      2       -2.324377e+01    
      3       2.356327e+01     
      4       2.386297e+01     
 
     NUMBER OF EIGENVALUES CONVERGED UPTO THIS ITERATION = 1
 
     ITERATION 158
      1       -2.148800e+01    
      2       -2.324371e+01    
      3       2.356157e+01     
      4       2.385286e+01     
 
     NUMBER OF EIGENVALUES CONVERGED UPTO THIS ITERATION = 1
 
     ITERATION 159
      1       -2.148800e+01    
      2       -2.324365e+01    
      3       2.355983e+01     
      4       2.384317e+01     
 
     NUMBER OF EIGENVALUES CONVERGED UPTO THIS ITERATION = 1
 
     ITERATION 160
      1       -2.148800e+01    
      2       -2.324359e+01    
      3       2.355803e+01     
      4       2.383389e+01     
 
     NUMBER OF EIGENVALUES CONVERGED UPTO THIS ITERATION = 1
 
     ITERATION 161
      1       -2.148800e+01    
      2       -2.324354e+01    
      3       2.355618e+01     
      4       2.382500e+01     
 
     NUMBER OF EIGENVALUES CONVERGED UPTO THIS ITERATION = 1
 
     ITERATION 162
      1       -2.148800e+01    
      2       -2.324349e+01    
      3       2.355429e+01     
      4       2.381650e+01     
 
     NUMBER OF EIGENVALUES CONVERGED UPTO THIS ITERATION = 1
 
     ITERATION 163
      1       -2.148800e+01    
      2       -2.324344e+01    
      3       2.355234e+01     
      4       2.380837e+01     
 
     NUMBER OF EIGENVALUES CONVERGED UPTO THIS ITERATION = 1
 
     ITERATION 164
      1       -2.148800e+01    
      2       -2.324339e+01    
      3       2.355035e+01     
      4       2.380060e+01     
 
     NUMBER OF EIGENVALUES CONVERGED UPTO THIS ITERATION = 1
 
     ITERATION 165
      1       -2.148800e+01    
      2       -2.324335e+01    
      3       2.354831e+01     
      4       2.379319e+01     
 
     NUMBER OF EIGENVALUES CONVERGED UPTO THIS ITERATION = 1
 
     ITERATION 166
      1       -2.148800e+01    
      2       -2.324330e+01    
      3       2.354623e+01     
      4       2.378611e+01     
 
     NUMBER OF EIGENVALUES CONVERGED UPTO THIS ITERATION = 1
 
     ITERATION 167
      1       -2.148800e+01    
      2       -2.324326e+01    
      3       2.354411e+01     
      4       2.377935e+01     
 
     NUMBER OF EIGENVALUES CONVERGED UPTO THIS ITERATION = 1
 
     ITERATION 168
      1       -2.148800e+01    
      2       -2.324323e+01    
      3       2.354194e+01     
      4       2.377292e+01     
 
     NUMBER OF EIGENVALUES CONVERGED UPTO THIS ITERATION = 1
 
     ITERATION 169
      1       -2.148800e+01    
      2       -2.324319e+01    
      3       2.353974e+01     
      4       2.376678e+01     
 
     NUMBER OF EIGENVALUES CONVERGED UPTO THIS ITERATION = 1
 
     ITERATION 170
      1       -2.148800e+01    
      2       -2.324315e+01    
      3       2.353751e+01     
      4       2.376094e+01     
 
     NUMBER OF EIGENVALUES CONVERGED UPTO THIS ITERATION = 1
 
     ITERATION 171
      1       -2.148800e+01    
      2       -2.324312e+01    
      3       2.353524e+01     
      4       2.375538e+01     
 
     NUMBER OF EIGENVALUES CONVERGED UPTO THIS ITERATION = 1
 
     ITERATION 172
      1       -2.148800e+01    
      2       -2.324309e+01    
      3       2.353295e+01     
      4       2.375009e+01     
 
     NUMBER OF EIGENVALUES CONVERGED UPTO THIS ITERATION = 1
 
     ITERATION 173
      1       -2.148800e+01    
      2       -2.324306e+01    
      3       2.353063e+01     
      4       2.374506e+01     
 
     NUMBER OF EIGENVALUES CONVERGED UPTO THIS ITERATION = 1
 
     ITERATION 174
      1       -2.148800e+01    
      2       -2.324303e+01    
      3       2.352829e+01     
      4       2.374028e+01     
 
     NUMBER OF EIGENVALUES CONVERGED UPTO THIS ITERATION = 1
 
     ITERATION 175
      1       -2.148800e+01    
      2       -2.324300e+01    
      3       2.352594e+01     
      4       2.373573e+01     
 
     NUMBER OF EIGENVALUES CONVERGED UPTO THIS ITERATION = 1
 
     ITERATION 176
      1       -2.148800e+01    
      2       -2.324297e+01    
      3       2.352357e+01     
      4       2.373141e+01     
 
     NUMBER OF EIGENVALUES CONVERGED UPTO THIS ITERATION = 1
 
     ITERATION 177
      1       -2.148800e+01    
      2       -2.324295e+01    
      3       2.352119e+01     
      4       2.372730e+01     
 
     NUMBER OF EIGENVALUES CONVERGED UPTO THIS ITERATION = 1
 
     ITERATION 178
      1       -2.148800e+01    
      2       -2.324292e+01    
      3       2.351880e+01     
      4       2.372340e+01     
 
     NUMBER OF EIGENVALUES CONVERGED UPTO THIS ITERATION = 1
 
     ITERATION 179
      1       -2.148800e+01    
      2       -2.324290e+01    
      3       2.351642e+01     
      4       2.371969e+01     
 
     NUMBER OF EIGENVALUES CONVERGED UPTO THIS ITERATION = 2


          THE ANALYSIS HAS BEEN COMPLETED



     ANALYSIS SUMMARY:
     TOTAL OF          1  INCREMENTS
                       0  CUTBACKS IN AUTOMATIC INCREMENTATION
                       1  ITERATIONS INCLUDING CONTACT ITERATIONS IF PRESENT
                       1  PASSES THROUGH THE EQUATION SOLVER OF WHICH 
                       1  INVOLVE MATRIX DECOMPOSITION, INCLUDING
                       0  DECOMPOSITION(S) OF THE MASS MATRIX
                       1  REORDERING OF EQUATIONS TO MINIMIZE WAVEFRONT
                       0  ADDITIONAL RESIDUAL EVALUATIONS FOR LINE SEARCHES
                       0  ADDITIONAL OPERATOR EVALUATIONS FOR LINE SEARCHES
                     577  WARNING MESSAGES DURING USER INPUT PROCESSING
                       0  WARNING MESSAGES DURING ANALYSIS
                       0  ANALYSIS WARNINGS ARE NUMERICAL PROBLEM MESSAGES
                       0  ANALYSIS WARNINGS ARE NEGATIVE EIGENVALUE MESSAGES
                       0  ERROR MESSAGES



     JOB TIME SUMMARY
       USER TIME (SEC)      =      2.7    
       SYSTEM TIME (SEC)    =     0.20    
       TOTAL CPU TIME (SEC) =      2.9    
       WALLCLOCK TIME (SEC) =            3
       MEMORY PEAK (GB)     =            0
