1

   Abaqus 2022.HF4                                  Date 24-Feb-2023   Time 21:54:57
   For use by BRIGHAM YOUNG UNIVERSITY under license from Dassault Systemes or its subsidiary.



                         The Abaqus Software is a product of:

                           Dassault Systemes SIMULIA Corp.
                           1301 Atwood Avenue, Suite 101W
                              Johnston, RI 02919, USA
 


                   The Abaqus Software is available only under license
                   from Dassault Systemes or its subsidiary and may be
                   used or reproduced only in accordance with the terms
                   of such license.
 
                          On machine DESKTOP-41DG23V 
                          you are authorized to run
                          Abaqus/Foundation until 15-Aug-2023

                          Your site id is: 200000000024435 


 
                    For assistance or any other information you may
                    obtain contact information for your local office
                    from the world wide web at:

                      http://www.3ds.com/products/simulia/locations/

 
                * * * * * * * * * * * * * * * * * * * * * * * * * * * * * * 
                *                                                         * 
                *                   *****************                     * 
                *                   *  N O T I C E  *                     * 
                *                   *****************                     * 
                *                                                         * 
                *                                                         * 
                *                     Abaqus 2022.HF4                     * 
                *                                                         * 
                *          BUILD ID: 2022_07_25-12.30.49 176790           * 
                *                                                         * 
                *                                                         * 
                *  Please make sure you are using                         * 
                *  release Abaqus 2022.HF4 manuals                        * 
                *  plus the notes accompanying this release.              * 
                *                                                         * 
                *                                                         * 
                *                                                         * 
                *                                                         * 
                *                                                         * 
                *   This program may not be used for commercial purposes  * 
                *           without payment of a commercial fee.          * 
                *                                                         * 
                * * * * * * * * * * * * * * * * * * * * * * * * * * * * * * 


 



     PROCESSING PART, INSTANCE, AND ASSEMBLY INFORMATION
   *******************************************************


     END PROCESSING PART, INSTANCE, AND ASSEMBLY INFORMATION
   ***********************************************************




     OPTIONS BEING PROCESSED
   ***************************


  *Heading
  *Node
  *Element, type=C3D8R
  *Element, type=C3D4
  *Nset, nset="ASSEMBLY_STALK_7-PITH-1_Pith Part"
  *Elset, elset="ASSEMBLY_STALK_7-PITH-1_Pith Part"
  *Node
  *Element, type=C3D6
  *Element, type=C3D8R
  *Nset, nset="ASSEMBLY_STALK_7-RIND-1_Rind Part"
  *Elset, elset="ASSEMBLY_STALK_7-RIND-1_Rind Part"
  *Node
  *Nset, nset="ASSEMBLY_ExtraRP Set"
  *Nset, nset="ASSEMBLY_Front Face"
  *Nset, nset="ASSEMBLY_MiddleRP Set"
  *Nset, nset="ASSEMBLY_Symmetry Geometry"
  *Nset, nset=ASSEMBLY_BOTTOMLOWEREDGE
  *Nset, nset=ASSEMBLY_BOTTOMUPPEREDGE
  *Nset, nset=ASSEMBLY_MIDDLESURFACE
  *Nset, nset=ASSEMBLY_TOPLOWEREDGE
  *Nset, nset=ASSEMBLY_TOPRP
  *Nset, nset=ASSEMBLY_TOPUPPEREDGE
  *Nset, nset=ASSEMBLY__PICKEDSET22
  *Nset, nset=ASSEMBLY__T0_STALK_7-PITH-1_SN
  *Nset, nset=ASSEMBLY__T1_STALK_7-PITH-1_SN
  *Elset, elset="ASSEMBLY_Front Face"
  *Elset, elset="ASSEMBLY_Symmetry Geometry"
  *Elset, elset="ASSEMBLY__Inner Rind_S1"
  *Elset, elset="ASSEMBLY__Inner Rind_S4"
  *Elset, elset="ASSEMBLY__Inner Rind_S5"
  *Elset, elset="ASSEMBLY__Outer Pith_S1"
  *Elset, elset="ASSEMBLY__Outer Pith_S2"
  *Elset, elset="ASSEMBLY__Outer Pith_S3"
  *Elset, elset="ASSEMBLY__Outer Pith_S4"
  *Elset, elset="ASSEMBLY__Outer Rind_S2"
  *Elset, elset="ASSEMBLY__Outer Rind_S5"
  *Elset, elset="ASSEMBLY__Outer Rind_S6"
  *Elset, elset=ASSEMBLY_BOTTOMLOWEREDGE
  *Elset, elset=ASSEMBLY_BOTTOMUPPEREDGE
  *Elset, elset=ASSEMBLY_MIDDLESURFACE
  *Elset, elset=ASSEMBLY_TOPLOWEREDGE
  *Elset, elset=ASSEMBLY_TOPUPPEREDGE
  *Elset, elset=ASSEMBLY___T0_STALK_7-PITH-1_M_S3
  *Elset, elset=ASSEMBLY___T1_STALK_7-PITH-1_M_S1
  *Elset, elset=ASSEMBLY___T1_STALK_7-PITH-1_M_S2
  *material, name=PITH
  *elastic, type=ENGINEERINGCONSTANTS
  *material, name=RIND
  *elastic, type=ENGINEERINGCONSTANTS
  *orientation, name=ASSEMBLY_STALK_7-PITH-1_ORI-1
  *orientation, name=ASSEMBLY_STALK_7-RIND-1_ORI-1
  *solidsection, elset="ASSEMBLY_STALK_7-PITH-1_Pith Part", orientation=ASSEMBLY_STALK_7-PITH-1_ORI-1, material=PITH
  *solidsection, elset="ASSEMBLY_STALK_7-RIND-1_Rind Part", orientation=ASSEMBLY_STALK_7-RIND-1_ORI-1, material=RIND
  *solidsection, elset="ASSEMBLY_STALK_7-PITH-1_Pith Part", orientation=ASSEMBLY_STALK_7-PITH-1_ORI-1, material=PITH
  *solidsection, elset="ASSEMBLY_STALK_7-RIND-1_Rind Part", orientation=ASSEMBLY_STALK_7-RIND-1_ORI-1, material=RIND
  *rigidbody, refnode=ASSEMBLY__PICKEDSET22, tienset="ASSEMBLY_Front Face"
  *tie, name=ASSEMBLY__T0_STALK_7-PITH-1-NODES, adjust=NO
  *tie, name=ASSEMBLY__T1_STALK_7-PITH-1-NODES, adjust=NO
  *tie, name=ASSEMBLY_PITHTORIND, adjust=NO
  *surface, type=ELEMENT, name="ASSEMBLY_Inner Rind"
  *surface, type=ELEMENT, name="ASSEMBLY_Outer Pith"
  *surface, type=ELEMENT, name="ASSEMBLY_Outer Rind"
  *surface, type=ELEMENT, name=ASSEMBLY__T0_STALK_7-PITH-1_M
  *surface, type=NODE, name=ASSEMBLY__T0_STALK_7-PITH-1_SN
  *surface, type=ELEMENT, name=ASSEMBLY__T1_STALK_7-PITH-1_M
  *surface, type=NODE, name=ASSEMBLY__T1_STALK_7-PITH-1_SN
  *rigidbody, refnode=ASSEMBLY__PICKEDSET22, tienset="ASSEMBLY_Front Face"
  *rigidbody, refnode=ASSEMBLY__PICKEDSET22, tienset="ASSEMBLY_Front Face"
  *rigidbody, refnode=ASSEMBLY__PICKEDSET22, tienset="ASSEMBLY_Front Face"
  *tie, name=ASSEMBLY__T0_STALK_7-PITH-1-NODES, adjust=NO
  *tie, name=ASSEMBLY__T1_STALK_7-PITH-1-NODES, adjust=NO
  *tie, name=ASSEMBLY_PITHTORIND, adjust=NO
  *surface, type=ELEMENT, name="ASSEMBLY_Inner Rind"
  *surface, type=ELEMENT, name="ASSEMBLY_Outer Pith"
  *surface, type=ELEMENT, name="ASSEMBLY_Outer Rind"
  *surface, type=ELEMENT, name=ASSEMBLY__T0_STALK_7-PITH-1_M
  *surface, type=NODE, name=ASSEMBLY__T0_STALK_7-PITH-1_SN
  *surface, type=ELEMENT, name=ASSEMBLY__T1_STALK_7-PITH-1_M
  *surface, type=NODE, name=ASSEMBLY__T1_STALK_7-PITH-1_SN

 ***WARNING: THE CONTACT AREA OR DISTRIBUTING WEIGHT ASSOCIATED WITH 2 NODES IS 
             ZERO OR NEGATIVE. A ONE IS ASSUMED FOR THE CONTACT AREA IF THE 
             SURFACE IS USED IN A CONTACT CALCULATION. A ZERO IS ASSUMED FOR 
             THE DISTRIBUTING WEIGHT FACTOR IF THE SURFACE IS USED IN A 
             *COUPLING OR *SHELL TO SOLID COUPLING DEFINITION. ONE EXAMPLE OF 
             SUCH A NODE IS 39 INSTANCE STALK_7-PITH-1. ALL NODES WITH THIS 
             ISSUE ARE INCLUDED IN THE NODE SET NODES_ZERO_AREA. NODES WITH 
             THIS ISSUE PER SECONDARY SURFACE ARE INCLUDED IN THE NODE SET 
             NODES_ZERO_AREA_SurfaceName. PLEASE CHECK THAT THIS IS APPROPRIATE.
  *surface, type=ELEMENT, name="ASSEMBLY_Inner Rind"
  *surface, type=ELEMENT, name="ASSEMBLY_Outer Pith"
  *surface, type=ELEMENT, name="ASSEMBLY_Outer Rind"
  *surface, type=ELEMENT, name=ASSEMBLY__T0_STALK_7-PITH-1_M
  *surface, type=NODE, name=ASSEMBLY__T0_STALK_7-PITH-1_SN
  *surface, type=ELEMENT, name=ASSEMBLY__T1_STALK_7-PITH-1_M
  *surface, type=NODE, name=ASSEMBLY__T1_STALK_7-PITH-1_SN
  *tie, name=ASSEMBLY__T0_STALK_7-PITH-1-NODES, adjust=NO
  *tie, name=ASSEMBLY__T1_STALK_7-PITH-1-NODES, adjust=NO
  *tie, name=ASSEMBLY_PITHTORIND, adjust=NO
  *rigidbody, refnode=ASSEMBLY__PICKEDSET22, tienset="ASSEMBLY_Front Face"
  *coupling, constraintname=ASSEMBLY_EXTRARP, refnode="ASSEMBLY_ExtraRP Set", surface="ASSEMBLY_Outer Rind", influenceradius=2
  *coupling, constraintname=ASSEMBLY_MIDDLERP, refnode="ASSEMBLY_MiddleRP Set", surface="ASSEMBLY_Outer Rind", influenceradius=2
  *tie, name=ASSEMBLY__T0_STALK_7-PITH-1-NODES, adjust=NO
  *tie, name=ASSEMBLY__T1_STALK_7-PITH-1-NODES, adjust=NO
  *tie, name=ASSEMBLY_PITHTORIND, adjust=NO
  *coupling, constraintname=ASSEMBLY_EXTRARP, refnode="ASSEMBLY_ExtraRP Set", surface="ASSEMBLY_Outer Rind", influenceradius=2
  *coupling, constraintname=ASSEMBLY_MIDDLERP, refnode="ASSEMBLY_MiddleRP Set", surface="ASSEMBLY_Outer Rind", influenceradius=2
  *coupling, constraintname=ASSEMBLY_EXTRARP, refnode="ASSEMBLY_ExtraRP Set", surface="ASSEMBLY_Outer Rind", influenceradius=2
  *coupling, constraintname=ASSEMBLY_MIDDLERP, refnode="ASSEMBLY_MiddleRP Set", surface="ASSEMBLY_Outer Rind", influenceradius=2
  *coupling, constraintname=ASSEMBLY_EXTRARP, refnode="ASSEMBLY_ExtraRP Set", surface="ASSEMBLY_Outer Rind", influenceradius=2
  *distributing, weightingmethod=UNIFORM

 ***WARNING: A 3D DISTRIBUTED COUPLING DEFINITION WITH ROTATIONAL 
             COUPLING=STRUCTURAL WILL IGNORE THE STRUCTURAL ROTATIONAL COUPLING 
             AS ALL OF NODES IN THE CLOUD ARE FROM ELEMENTS WHICH DO NOT HAVE 
             ALL ROTATIONAL DEGREES OF FREEDOM ACTIVE
  *coupling, constraintname=ASSEMBLY_MIDDLERP, refnode="ASSEMBLY_MiddleRP Set", surface="ASSEMBLY_Outer Rind", influenceradius=2
  *distributing, weightingmethod=UNIFORM

 ***WARNING: A 3D DISTRIBUTED COUPLING DEFINITION WITH ROTATIONAL 
             COUPLING=STRUCTURAL WILL IGNORE THE STRUCTURAL ROTATIONAL COUPLING 
             AS ALL OF NODES IN THE CLOUD ARE FROM ELEMENTS WHICH DO NOT HAVE 
             ALL ROTATIONAL DEGREES OF FREEDOM ACTIVE
  *coupling, constraintname=ASSEMBLY_EXTRARP, refnode="ASSEMBLY_ExtraRP Set", surface="ASSEMBLY_Outer Rind", influenceradius=2
  *coupling, constraintname=ASSEMBLY_MIDDLERP, refnode="ASSEMBLY_MiddleRP Set", surface="ASSEMBLY_Outer Rind", influenceradius=2
  *rigidbody, refnode=ASSEMBLY__PICKEDSET22, tienset="ASSEMBLY_Front Face"
  *rigidbody, refnode=ASSEMBLY__PICKEDSET22, tienset="ASSEMBLY_Front Face"
  *boundary, op=NEW, loadcase=1
  *boundary, op=NEW, loadcase=2
  *boundary, op=NEW, loadcase=1
  *boundary, op=NEW, loadcase=2
  *boundary, op=NEW, loadcase=1
  *boundary, op=NEW, loadcase=2
  *boundary, op=NEW, loadcase=1
  *boundary, op=NEW, loadcase=2
  *boundary, op=NEW, loadcase=1
  *boundary, op=NEW, loadcase=2
  *boundary, op=NEW, loadcase=1
  *boundary, op=NEW, loadcase=2
  *tie, name=ASSEMBLY__T0_STALK_7-PITH-1-NODES, adjust=NO

 ***WARNING: SECONDARY SURFACE ASSEMBLY__T0_STALK_7-PITH-1_SN IS A NODE-BASED 
             SURFACE USED WITH SURFACE TO SURFACE APPROACH.  IN ORDER TO OBTAIN 
             IMPROVED STRESS ACCURACY WITH THIS APPROACH, AN ELEMENT-BASED 
             SURFACE SHOULD BE USED INSTEAD.

 ***WARNING: PLEASE MAKE SURE THAT THE MESH DENSITY OF THE SECONDARY SURFACE IN 
             THE TIE PAIR 
             (ASSEMBLY__T0_STALK_7-PITH-1_SN,ASSEMBLY__T0_STALK_7-PITH-1_M) IS 
             FINER THAN THE MAIN SURFACE.  THE ANALYSIS MAY RUN SLOWER, MAY 
             YIELD INACCURATE RESULTS, AND MAY REQUIRE MORE MEMORY IF THIS IS 
             NOT THE CASE.
  *tie, name=ASSEMBLY__T1_STALK_7-PITH-1-NODES, adjust=NO

 ***WARNING: SECONDARY SURFACE ASSEMBLY__T1_STALK_7-PITH-1_SN IS A NODE-BASED 
             SURFACE USED WITH SURFACE TO SURFACE APPROACH.  IN ORDER TO OBTAIN 
             IMPROVED STRESS ACCURACY WITH THIS APPROACH, AN ELEMENT-BASED 
             SURFACE SHOULD BE USED INSTEAD.

 ***WARNING: PLEASE MAKE SURE THAT THE MESH DENSITY OF THE SECONDARY SURFACE IN 
             THE TIE PAIR 
             (ASSEMBLY__T1_STALK_7-PITH-1_SN,ASSEMBLY__T1_STALK_7-PITH-1_M) IS 
             FINER THAN THE MAIN SURFACE.  THE ANALYSIS MAY RUN SLOWER, MAY 
             YIELD INACCURATE RESULTS, AND MAY REQUIRE MORE MEMORY IF THIS IS 
             NOT THE CASE.
  *tie, name=ASSEMBLY_PITHTORIND, adjust=NO

 ***WARNING: Abaqus WILL NOT ADJUST THE SURFACE NORMAL FOR THE SYMMETRY PLANE 
             AT NODE 6 INSTANCE STALK_7-RIND-1 OF SURFACE ASSEMBLY_Inner Rind. 
             THE MESH MAY BE VERY COARSE OR THE SURFACE MAY BE UNTRIMMED AT THE 
             SYMMETRY PLANE. PLEASE USE THE *NORMAL OPTION TO SPECIFY THE 
             PROPER SURFACE NORMAL.

 ***WARNING: Abaqus WILL NOT ADJUST THE SURFACE NORMAL FOR THE SYMMETRY PLANE 
             AT NODE 7 INSTANCE STALK_7-RIND-1 OF SURFACE ASSEMBLY_Inner Rind. 
             THE MESH MAY BE VERY COARSE OR THE SURFACE MAY BE UNTRIMMED AT THE 
             SYMMETRY PLANE. PLEASE USE THE *NORMAL OPTION TO SPECIFY THE 
             PROPER SURFACE NORMAL.

 ***WARNING: Abaqus WILL NOT ADJUST THE SURFACE NORMAL FOR THE SYMMETRY PLANE 
             AT NODE 14 INSTANCE STALK_7-RIND-1 OF SURFACE ASSEMBLY_Inner Rind. 
             THE MESH MAY BE VERY COARSE OR THE SURFACE MAY BE UNTRIMMED AT THE 
             SYMMETRY PLANE. PLEASE USE THE *NORMAL OPTION TO SPECIFY THE 
             PROPER SURFACE NORMAL.

 ***WARNING: Abaqus WILL NOT ADJUST THE SURFACE NORMAL FOR THE SYMMETRY PLANE 
             AT NODE 15 INSTANCE STALK_7-RIND-1 OF SURFACE ASSEMBLY_Inner Rind. 
             THE MESH MAY BE VERY COARSE OR THE SURFACE MAY BE UNTRIMMED AT THE 
             SYMMETRY PLANE. PLEASE USE THE *NORMAL OPTION TO SPECIFY THE 
             PROPER SURFACE NORMAL.

 ***WARNING: Abaqus WILL NOT ADJUST THE SURFACE NORMAL FOR THE SYMMETRY PLANE 
             AT NODE 16 INSTANCE STALK_7-RIND-1 OF SURFACE ASSEMBLY_Inner Rind. 
             THE MESH MAY BE VERY COARSE OR THE SURFACE MAY BE UNTRIMMED AT THE 
             SYMMETRY PLANE. PLEASE USE THE *NORMAL OPTION TO SPECIFY THE 
             PROPER SURFACE NORMAL.

 ***WARNING: Abaqus WILL NOT ADJUST THE SURFACE NORMAL FOR THE SYMMETRY PLANE 
             AT NODE 22 INSTANCE STALK_7-RIND-1 OF SURFACE ASSEMBLY_Inner Rind. 
             THE MESH MAY BE VERY COARSE OR THE SURFACE MAY BE UNTRIMMED AT THE 
             SYMMETRY PLANE. PLEASE USE THE *NORMAL OPTION TO SPECIFY THE 
             PROPER SURFACE NORMAL.

 ***WARNING: Abaqus WILL NOT ADJUST THE SURFACE NORMAL FOR THE SYMMETRY PLANE 
             AT NODE 23 INSTANCE STALK_7-RIND-1 OF SURFACE ASSEMBLY_Inner Rind. 
             THE MESH MAY BE VERY COARSE OR THE SURFACE MAY BE UNTRIMMED AT THE 
             SYMMETRY PLANE. PLEASE USE THE *NORMAL OPTION TO SPECIFY THE 
             PROPER SURFACE NORMAL.

 ***WARNING: Abaqus WILL NOT ADJUST THE SURFACE NORMAL FOR THE SYMMETRY PLANE 
             AT NODE 36 INSTANCE STALK_7-RIND-1 OF SURFACE ASSEMBLY_Inner Rind. 
             THE MESH MAY BE VERY COARSE OR THE SURFACE MAY BE UNTRIMMED AT THE 
             SYMMETRY PLANE. PLEASE USE THE *NORMAL OPTION TO SPECIFY THE 
             PROPER SURFACE NORMAL.

 ***WARNING: Abaqus WILL NOT ADJUST THE SURFACE NORMAL FOR THE SYMMETRY PLANE 
             AT NODE 37 INSTANCE STALK_7-RIND-1 OF SURFACE ASSEMBLY_Inner Rind. 
             THE MESH MAY BE VERY COARSE OR THE SURFACE MAY BE UNTRIMMED AT THE 
             SYMMETRY PLANE. PLEASE USE THE *NORMAL OPTION TO SPECIFY THE 
             PROPER SURFACE NORMAL.

 ***WARNING: Abaqus WILL NOT ADJUST THE SURFACE NORMAL FOR THE SYMMETRY PLANE 
             AT NODE 44 INSTANCE STALK_7-RIND-1 OF SURFACE ASSEMBLY_Inner Rind. 
             THE MESH MAY BE VERY COARSE OR THE SURFACE MAY BE UNTRIMMED AT THE 
             SYMMETRY PLANE. PLEASE USE THE *NORMAL OPTION TO SPECIFY THE 
             PROPER SURFACE NORMAL.

 ***WARNING: Abaqus WILL NOT ADJUST THE SURFACE NORMAL FOR THE SYMMETRY PLANE 
             AT NODE 45 INSTANCE STALK_7-RIND-1 OF SURFACE ASSEMBLY_Inner Rind. 
             THE MESH MAY BE VERY COARSE OR THE SURFACE MAY BE UNTRIMMED AT THE 
             SYMMETRY PLANE. PLEASE USE THE *NORMAL OPTION TO SPECIFY THE 
             PROPER SURFACE NORMAL.

 ***WARNING: Abaqus WILL NOT ADJUST THE SURFACE NORMAL FOR THE SYMMETRY PLANE 
             AT NODE 46 INSTANCE STALK_7-RIND-1 OF SURFACE ASSEMBLY_Inner Rind. 
             THE MESH MAY BE VERY COARSE OR THE SURFACE MAY BE UNTRIMMED AT THE 
             SYMMETRY PLANE. PLEASE USE THE *NORMAL OPTION TO SPECIFY THE 
             PROPER SURFACE NORMAL.

 ***WARNING: Abaqus WILL NOT ADJUST THE SURFACE NORMAL FOR THE SYMMETRY PLANE 
             AT NODE 56 INSTANCE STALK_7-RIND-1 OF SURFACE ASSEMBLY_Inner Rind. 
             THE MESH MAY BE VERY COARSE OR THE SURFACE MAY BE UNTRIMMED AT THE 
             SYMMETRY PLANE. PLEASE USE THE *NORMAL OPTION TO SPECIFY THE 
             PROPER SURFACE NORMAL.

 ***WARNING: Abaqus WILL NOT ADJUST THE SURFACE NORMAL FOR THE SYMMETRY PLANE 
             AT NODE 113 INSTANCE STALK_7-RIND-1 OF SURFACE ASSEMBLY_Inner 
             Rind. THE MESH MAY BE VERY COARSE OR THE SURFACE MAY BE UNTRIMMED 
             AT THE SYMMETRY PLANE. PLEASE USE THE *NORMAL OPTION TO SPECIFY 
             THE PROPER SURFACE NORMAL.

 ***WARNING: Abaqus WILL NOT ADJUST THE SURFACE NORMAL FOR THE SYMMETRY PLANE 
             AT NODE 114 INSTANCE STALK_7-RIND-1 OF SURFACE ASSEMBLY_Inner 
             Rind. THE MESH MAY BE VERY COARSE OR THE SURFACE MAY BE UNTRIMMED 
             AT THE SYMMETRY PLANE. PLEASE USE THE *NORMAL OPTION TO SPECIFY 
             THE PROPER SURFACE NORMAL.

 ***WARNING: Abaqus WILL NOT ADJUST THE SURFACE NORMAL FOR THE SYMMETRY PLANE 
             AT NODE 115 INSTANCE STALK_7-RIND-1 OF SURFACE ASSEMBLY_Inner 
             Rind. THE MESH MAY BE VERY COARSE OR THE SURFACE MAY BE UNTRIMMED 
             AT THE SYMMETRY PLANE. PLEASE USE THE *NORMAL OPTION TO SPECIFY 
             THE PROPER SURFACE NORMAL.

 ***WARNING: Abaqus WILL NOT ADJUST THE SURFACE NORMAL FOR THE SYMMETRY PLANE 
             AT NODE 116 INSTANCE STALK_7-RIND-1 OF SURFACE ASSEMBLY_Inner 
             Rind. THE MESH MAY BE VERY COARSE OR THE SURFACE MAY BE UNTRIMMED 
             AT THE SYMMETRY PLANE. PLEASE USE THE *NORMAL OPTION TO SPECIFY 
             THE PROPER SURFACE NORMAL.

 ***WARNING: Abaqus WILL NOT ADJUST THE SURFACE NORMAL FOR THE SYMMETRY PLANE 
             AT NODE 117 INSTANCE STALK_7-RIND-1 OF SURFACE ASSEMBLY_Inner 
             Rind. THE MESH MAY BE VERY COARSE OR THE SURFACE MAY BE UNTRIMMED 
             AT THE SYMMETRY PLANE. PLEASE USE THE *NORMAL OPTION TO SPECIFY 
             THE PROPER SURFACE NORMAL.

 ***WARNING: Abaqus WILL NOT ADJUST THE SURFACE NORMAL FOR THE SYMMETRY PLANE 
             AT NODE 118 INSTANCE STALK_7-RIND-1 OF SURFACE ASSEMBLY_Inner 
             Rind. THE MESH MAY BE VERY COARSE OR THE SURFACE MAY BE UNTRIMMED 
             AT THE SYMMETRY PLANE. PLEASE USE THE *NORMAL OPTION TO SPECIFY 
             THE PROPER SURFACE NORMAL.

 ***WARNING: Abaqus WILL NOT ADJUST THE SURFACE NORMAL FOR THE SYMMETRY PLANE 
             AT NODE 119 INSTANCE STALK_7-RIND-1 OF SURFACE ASSEMBLY_Inner 
             Rind. THE MESH MAY BE VERY COARSE OR THE SURFACE MAY BE UNTRIMMED 
             AT THE SYMMETRY PLANE. PLEASE USE THE *NORMAL OPTION TO SPECIFY 
             THE PROPER SURFACE NORMAL.

 ***WARNING: Abaqus WILL NOT ADJUST THE SURFACE NORMAL FOR THE SYMMETRY PLANE 
             AT NODE 120 INSTANCE STALK_7-RIND-1 OF SURFACE ASSEMBLY_Inner 
             Rind. THE MESH MAY BE VERY COARSE OR THE SURFACE MAY BE UNTRIMMED 
             AT THE SYMMETRY PLANE. PLEASE USE THE *NORMAL OPTION TO SPECIFY 
             THE PROPER SURFACE NORMAL.

 ***WARNING: Abaqus WILL NOT ADJUST THE SURFACE NORMAL FOR THE SYMMETRY PLANE 
             AT NODE 121 INSTANCE STALK_7-RIND-1 OF SURFACE ASSEMBLY_Inner 
             Rind. THE MESH MAY BE VERY COARSE OR THE SURFACE MAY BE UNTRIMMED 
             AT THE SYMMETRY PLANE. PLEASE USE THE *NORMAL OPTION TO SPECIFY 
             THE PROPER SURFACE NORMAL.

 ***WARNING: Abaqus WILL NOT ADJUST THE SURFACE NORMAL FOR THE SYMMETRY PLANE 
             AT NODE 122 INSTANCE STALK_7-RIND-1 OF SURFACE ASSEMBLY_Inner 
             Rind. THE MESH MAY BE VERY COARSE OR THE SURFACE MAY BE UNTRIMMED 
             AT THE SYMMETRY PLANE. PLEASE USE THE *NORMAL OPTION TO SPECIFY 
             THE PROPER SURFACE NORMAL.

 ***WARNING: Abaqus WILL NOT ADJUST THE SURFACE NORMAL FOR THE SYMMETRY PLANE 
             AT NODE 123 INSTANCE STALK_7-RIND-1 OF SURFACE ASSEMBLY_Inner 
             Rind. THE MESH MAY BE VERY COARSE OR THE SURFACE MAY BE UNTRIMMED 
             AT THE SYMMETRY PLANE. PLEASE USE THE *NORMAL OPTION TO SPECIFY 
             THE PROPER SURFACE NORMAL.

 ***WARNING: Abaqus WILL NOT ADJUST THE SURFACE NORMAL FOR THE SYMMETRY PLANE 
             AT NODE 124 INSTANCE STALK_7-RIND-1 OF SURFACE ASSEMBLY_Inner 
             Rind. THE MESH MAY BE VERY COARSE OR THE SURFACE MAY BE UNTRIMMED 
             AT THE SYMMETRY PLANE. PLEASE USE THE *NORMAL OPTION TO SPECIFY 
             THE PROPER SURFACE NORMAL.

 ***WARNING: Abaqus WILL NOT ADJUST THE SURFACE NORMAL FOR THE SYMMETRY PLANE 
             AT NODE 125 INSTANCE STALK_7-RIND-1 OF SURFACE ASSEMBLY_Inner 
             Rind. THE MESH MAY BE VERY COARSE OR THE SURFACE MAY BE UNTRIMMED 
             AT THE SYMMETRY PLANE. PLEASE USE THE *NORMAL OPTION TO SPECIFY 
             THE PROPER SURFACE NORMAL.

 ***WARNING: Abaqus WILL NOT ADJUST THE SURFACE NORMAL FOR THE SYMMETRY PLANE 
             AT NODE 126 INSTANCE STALK_7-RIND-1 OF SURFACE ASSEMBLY_Inner 
             Rind. THE MESH MAY BE VERY COARSE OR THE SURFACE MAY BE UNTRIMMED 
             AT THE SYMMETRY PLANE. PLEASE USE THE *NORMAL OPTION TO SPECIFY 
             THE PROPER SURFACE NORMAL.

 ***WARNING: Abaqus WILL NOT ADJUST THE SURFACE NORMAL FOR THE SYMMETRY PLANE 
             AT NODE 127 INSTANCE STALK_7-RIND-1 OF SURFACE ASSEMBLY_Inner 
             Rind. THE MESH MAY BE VERY COARSE OR THE SURFACE MAY BE UNTRIMMED 
             AT THE SYMMETRY PLANE. PLEASE USE THE *NORMAL OPTION TO SPECIFY 
             THE PROPER SURFACE NORMAL.

 ***WARNING: Abaqus WILL NOT ADJUST THE SURFACE NORMAL FOR THE SYMMETRY PLANE 
             AT NODE 128 INSTANCE STALK_7-RIND-1 OF SURFACE ASSEMBLY_Inner 
             Rind. THE MESH MAY BE VERY COARSE OR THE SURFACE MAY BE UNTRIMMED 
             AT THE SYMMETRY PLANE. PLEASE USE THE *NORMAL OPTION TO SPECIFY 
             THE PROPER SURFACE NORMAL.

 ***WARNING: Abaqus WILL NOT ADJUST THE SURFACE NORMAL FOR THE SYMMETRY PLANE 
             AT NODE 129 INSTANCE STALK_7-RIND-1 OF SURFACE ASSEMBLY_Inner 
             Rind. THE MESH MAY BE VERY COARSE OR THE SURFACE MAY BE UNTRIMMED 
             AT THE SYMMETRY PLANE. PLEASE USE THE *NORMAL OPTION TO SPECIFY 
             THE PROPER SURFACE NORMAL.

 ***WARNING: Abaqus WILL NOT ADJUST THE SURFACE NORMAL FOR THE SYMMETRY PLANE 
             AT NODE 168 INSTANCE STALK_7-RIND-1 OF SURFACE ASSEMBLY_Inner 
             Rind. THE MESH MAY BE VERY COARSE OR THE SURFACE MAY BE UNTRIMMED 
             AT THE SYMMETRY PLANE. PLEASE USE THE *NORMAL OPTION TO SPECIFY 
             THE PROPER SURFACE NORMAL.

 ***WARNING: Abaqus WILL NOT ADJUST THE SURFACE NORMAL FOR THE SYMMETRY PLANE 
             AT NODE 169 INSTANCE STALK_7-RIND-1 OF SURFACE ASSEMBLY_Inner 
             Rind. THE MESH MAY BE VERY COARSE OR THE SURFACE MAY BE UNTRIMMED 
             AT THE SYMMETRY PLANE. PLEASE USE THE *NORMAL OPTION TO SPECIFY 
             THE PROPER SURFACE NORMAL.

 ***WARNING: Abaqus WILL NOT ADJUST THE SURFACE NORMAL FOR THE SYMMETRY PLANE 
             AT NODE 170 INSTANCE STALK_7-RIND-1 OF SURFACE ASSEMBLY_Inner 
             Rind. THE MESH MAY BE VERY COARSE OR THE SURFACE MAY BE UNTRIMMED 
             AT THE SYMMETRY PLANE. PLEASE USE THE *NORMAL OPTION TO SPECIFY 
             THE PROPER SURFACE NORMAL.

 ***WARNING: Abaqus WILL NOT ADJUST THE SURFACE NORMAL FOR THE SYMMETRY PLANE 
             AT NODE 174 INSTANCE STALK_7-RIND-1 OF SURFACE ASSEMBLY_Inner 
             Rind. THE MESH MAY BE VERY COARSE OR THE SURFACE MAY BE UNTRIMMED 
             AT THE SYMMETRY PLANE. PLEASE USE THE *NORMAL OPTION TO SPECIFY 
             THE PROPER SURFACE NORMAL.

 ***WARNING: Abaqus WILL NOT ADJUST THE SURFACE NORMAL FOR THE SYMMETRY PLANE 
             AT NODE 178 INSTANCE STALK_7-RIND-1 OF SURFACE ASSEMBLY_Inner 
             Rind. THE MESH MAY BE VERY COARSE OR THE SURFACE MAY BE UNTRIMMED 
             AT THE SYMMETRY PLANE. PLEASE USE THE *NORMAL OPTION TO SPECIFY 
             THE PROPER SURFACE NORMAL.

 ***WARNING: Abaqus WILL NOT ADJUST THE SURFACE NORMAL FOR THE SYMMETRY PLANE 
             AT NODE 179 INSTANCE STALK_7-RIND-1 OF SURFACE ASSEMBLY_Inner 
             Rind. THE MESH MAY BE VERY COARSE OR THE SURFACE MAY BE UNTRIMMED 
             AT THE SYMMETRY PLANE. PLEASE USE THE *NORMAL OPTION TO SPECIFY 
             THE PROPER SURFACE NORMAL.

 ***WARNING: Abaqus WILL NOT ADJUST THE SURFACE NORMAL FOR THE SYMMETRY PLANE 
             AT NODE 248 INSTANCE STALK_7-RIND-1 OF SURFACE ASSEMBLY_Inner 
             Rind. THE MESH MAY BE VERY COARSE OR THE SURFACE MAY BE UNTRIMMED 
             AT THE SYMMETRY PLANE. PLEASE USE THE *NORMAL OPTION TO SPECIFY 
             THE PROPER SURFACE NORMAL.

 ***WARNING: Abaqus WILL NOT ADJUST THE SURFACE NORMAL FOR THE SYMMETRY PLANE 
             AT NODE 249 INSTANCE STALK_7-RIND-1 OF SURFACE ASSEMBLY_Inner 
             Rind. THE MESH MAY BE VERY COARSE OR THE SURFACE MAY BE UNTRIMMED 
             AT THE SYMMETRY PLANE. PLEASE USE THE *NORMAL OPTION TO SPECIFY 
             THE PROPER SURFACE NORMAL.

 ***WARNING: Abaqus WILL NOT ADJUST THE SURFACE NORMAL FOR THE SYMMETRY PLANE 
             AT NODE 250 INSTANCE STALK_7-RIND-1 OF SURFACE ASSEMBLY_Inner 
             Rind. THE MESH MAY BE VERY COARSE OR THE SURFACE MAY BE UNTRIMMED 
             AT THE SYMMETRY PLANE. PLEASE USE THE *NORMAL OPTION TO SPECIFY 
             THE PROPER SURFACE NORMAL.

 ***WARNING: Abaqus WILL NOT ADJUST THE SURFACE NORMAL FOR THE SYMMETRY PLANE 
             AT NODE 252 INSTANCE STALK_7-RIND-1 OF SURFACE ASSEMBLY_Inner 
             Rind. THE MESH MAY BE VERY COARSE OR THE SURFACE MAY BE UNTRIMMED 
             AT THE SYMMETRY PLANE. PLEASE USE THE *NORMAL OPTION TO SPECIFY 
             THE PROPER SURFACE NORMAL.

 ***WARNING: Abaqus WILL NOT ADJUST THE SURFACE NORMAL FOR THE SYMMETRY PLANE 
             AT NODE 253 INSTANCE STALK_7-RIND-1 OF SURFACE ASSEMBLY_Inner 
             Rind. THE MESH MAY BE VERY COARSE OR THE SURFACE MAY BE UNTRIMMED 
             AT THE SYMMETRY PLANE. PLEASE USE THE *NORMAL OPTION TO SPECIFY 
             THE PROPER SURFACE NORMAL.

 ***WARNING: Abaqus WILL NOT ADJUST THE SURFACE NORMAL FOR THE SYMMETRY PLANE 
             AT NODE 254 INSTANCE STALK_7-RIND-1 OF SURFACE ASSEMBLY_Inner 
             Rind. THE MESH MAY BE VERY COARSE OR THE SURFACE MAY BE UNTRIMMED 
             AT THE SYMMETRY PLANE. PLEASE USE THE *NORMAL OPTION TO SPECIFY 
             THE PROPER SURFACE NORMAL.

 ***WARNING: Abaqus WILL NOT ADJUST THE SURFACE NORMAL FOR THE SYMMETRY PLANE 
             AT NODE 256 INSTANCE STALK_7-RIND-1 OF SURFACE ASSEMBLY_Inner 
             Rind. THE MESH MAY BE VERY COARSE OR THE SURFACE MAY BE UNTRIMMED 
             AT THE SYMMETRY PLANE. PLEASE USE THE *NORMAL OPTION TO SPECIFY 
             THE PROPER SURFACE NORMAL.

 ***WARNING: Abaqus WILL NOT ADJUST THE SURFACE NORMAL FOR THE SYMMETRY PLANE 
             AT NODE 257 INSTANCE STALK_7-RIND-1 OF SURFACE ASSEMBLY_Inner 
             Rind. THE MESH MAY BE VERY COARSE OR THE SURFACE MAY BE UNTRIMMED 
             AT THE SYMMETRY PLANE. PLEASE USE THE *NORMAL OPTION TO SPECIFY 
             THE PROPER SURFACE NORMAL.

 ***WARNING: Abaqus WILL NOT ADJUST THE SURFACE NORMAL FOR THE SYMMETRY PLANE 
             AT NODE 258 INSTANCE STALK_7-RIND-1 OF SURFACE ASSEMBLY_Inner 
             Rind. THE MESH MAY BE VERY COARSE OR THE SURFACE MAY BE UNTRIMMED 
             AT THE SYMMETRY PLANE. PLEASE USE THE *NORMAL OPTION TO SPECIFY 
             THE PROPER SURFACE NORMAL.

 ***WARNING: Abaqus WILL NOT ADJUST THE SURFACE NORMAL FOR THE SYMMETRY PLANE 
             AT NODE 260 INSTANCE STALK_7-RIND-1 OF SURFACE ASSEMBLY_Inner 
             Rind. THE MESH MAY BE VERY COARSE OR THE SURFACE MAY BE UNTRIMMED 
             AT THE SYMMETRY PLANE. PLEASE USE THE *NORMAL OPTION TO SPECIFY 
             THE PROPER SURFACE NORMAL.

 ***WARNING: Abaqus WILL NOT ADJUST THE SURFACE NORMAL FOR THE SYMMETRY PLANE 
             AT NODE 261 INSTANCE STALK_7-RIND-1 OF SURFACE ASSEMBLY_Inner 
             Rind. THE MESH MAY BE VERY COARSE OR THE SURFACE MAY BE UNTRIMMED 
             AT THE SYMMETRY PLANE. PLEASE USE THE *NORMAL OPTION TO SPECIFY 
             THE PROPER SURFACE NORMAL.

 ***WARNING: Abaqus WILL NOT ADJUST THE SURFACE NORMAL FOR THE SYMMETRY PLANE 
             AT NODE 262 INSTANCE STALK_7-RIND-1 OF SURFACE ASSEMBLY_Inner 
             Rind. THE MESH MAY BE VERY COARSE OR THE SURFACE MAY BE UNTRIMMED 
             AT THE SYMMETRY PLANE. PLEASE USE THE *NORMAL OPTION TO SPECIFY 
             THE PROPER SURFACE NORMAL.

 ***WARNING: Abaqus WILL NOT ADJUST THE SURFACE NORMAL FOR THE SYMMETRY PLANE 
             AT NODE 264 INSTANCE STALK_7-RIND-1 OF SURFACE ASSEMBLY_Inner 
             Rind. THE MESH MAY BE VERY COARSE OR THE SURFACE MAY BE UNTRIMMED 
             AT THE SYMMETRY PLANE. PLEASE USE THE *NORMAL OPTION TO SPECIFY 
             THE PROPER SURFACE NORMAL.

 ***WARNING: Abaqus WILL NOT ADJUST THE SURFACE NORMAL FOR THE SYMMETRY PLANE 
             AT NODE 265 INSTANCE STALK_7-RIND-1 OF SURFACE ASSEMBLY_Inner 
             Rind. THE MESH MAY BE VERY COARSE OR THE SURFACE MAY BE UNTRIMMED 
             AT THE SYMMETRY PLANE. PLEASE USE THE *NORMAL OPTION TO SPECIFY 
             THE PROPER SURFACE NORMAL.

 ***WARNING: Abaqus WILL NOT ADJUST THE SURFACE NORMAL FOR THE SYMMETRY PLANE 
             AT NODE 266 INSTANCE STALK_7-RIND-1 OF SURFACE ASSEMBLY_Inner 
             Rind. THE MESH MAY BE VERY COARSE OR THE SURFACE MAY BE UNTRIMMED 
             AT THE SYMMETRY PLANE. PLEASE USE THE *NORMAL OPTION TO SPECIFY 
             THE PROPER SURFACE NORMAL.

 ***WARNING: Abaqus WILL NOT ADJUST THE SURFACE NORMAL FOR THE SYMMETRY PLANE 
             AT NODE 268 INSTANCE STALK_7-RIND-1 OF SURFACE ASSEMBLY_Inner 
             Rind. THE MESH MAY BE VERY COARSE OR THE SURFACE MAY BE UNTRIMMED 
             AT THE SYMMETRY PLANE. PLEASE USE THE *NORMAL OPTION TO SPECIFY 
             THE PROPER SURFACE NORMAL.

 ***WARNING: Abaqus WILL NOT ADJUST THE SURFACE NORMAL FOR THE SYMMETRY PLANE 
             AT NODE 269 INSTANCE STALK_7-RIND-1 OF SURFACE ASSEMBLY_Inner 
             Rind. THE MESH MAY BE VERY COARSE OR THE SURFACE MAY BE UNTRIMMED 
             AT THE SYMMETRY PLANE. PLEASE USE THE *NORMAL OPTION TO SPECIFY 
             THE PROPER SURFACE NORMAL.

 ***WARNING: Abaqus WILL NOT ADJUST THE SURFACE NORMAL FOR THE SYMMETRY PLANE 
             AT NODE 270 INSTANCE STALK_7-RIND-1 OF SURFACE ASSEMBLY_Inner 
             Rind. THE MESH MAY BE VERY COARSE OR THE SURFACE MAY BE UNTRIMMED 
             AT THE SYMMETRY PLANE. PLEASE USE THE *NORMAL OPTION TO SPECIFY 
             THE PROPER SURFACE NORMAL.

 ***WARNING: Abaqus WILL NOT ADJUST THE SURFACE NORMAL FOR THE SYMMETRY PLANE 
             AT NODE 272 INSTANCE STALK_7-RIND-1 OF SURFACE ASSEMBLY_Inner 
             Rind. THE MESH MAY BE VERY COARSE OR THE SURFACE MAY BE UNTRIMMED 
             AT THE SYMMETRY PLANE. PLEASE USE THE *NORMAL OPTION TO SPECIFY 
             THE PROPER SURFACE NORMAL.

 ***WARNING: Abaqus WILL NOT ADJUST THE SURFACE NORMAL FOR THE SYMMETRY PLANE 
             AT NODE 273 INSTANCE STALK_7-RIND-1 OF SURFACE ASSEMBLY_Inner 
             Rind. THE MESH MAY BE VERY COARSE OR THE SURFACE MAY BE UNTRIMMED 
             AT THE SYMMETRY PLANE. PLEASE USE THE *NORMAL OPTION TO SPECIFY 
             THE PROPER SURFACE NORMAL.

 ***WARNING: Abaqus WILL NOT ADJUST THE SURFACE NORMAL FOR THE SYMMETRY PLANE 
             AT NODE 274 INSTANCE STALK_7-RIND-1 OF SURFACE ASSEMBLY_Inner 
             Rind. THE MESH MAY BE VERY COARSE OR THE SURFACE MAY BE UNTRIMMED 
             AT THE SYMMETRY PLANE. PLEASE USE THE *NORMAL OPTION TO SPECIFY 
             THE PROPER SURFACE NORMAL.

 ***WARNING: Abaqus WILL NOT ADJUST THE SURFACE NORMAL FOR THE SYMMETRY PLANE 
             AT NODE 276 INSTANCE STALK_7-RIND-1 OF SURFACE ASSEMBLY_Inner 
             Rind. THE MESH MAY BE VERY COARSE OR THE SURFACE MAY BE UNTRIMMED 
             AT THE SYMMETRY PLANE. PLEASE USE THE *NORMAL OPTION TO SPECIFY 
             THE PROPER SURFACE NORMAL.

 ***WARNING: Abaqus WILL NOT ADJUST THE SURFACE NORMAL FOR THE SYMMETRY PLANE 
             AT NODE 277 INSTANCE STALK_7-RIND-1 OF SURFACE ASSEMBLY_Inner 
             Rind. THE MESH MAY BE VERY COARSE OR THE SURFACE MAY BE UNTRIMMED 
             AT THE SYMMETRY PLANE. PLEASE USE THE *NORMAL OPTION TO SPECIFY 
             THE PROPER SURFACE NORMAL.

 ***WARNING: Abaqus WILL NOT ADJUST THE SURFACE NORMAL FOR THE SYMMETRY PLANE 
             AT NODE 278 INSTANCE STALK_7-RIND-1 OF SURFACE ASSEMBLY_Inner 
             Rind. THE MESH MAY BE VERY COARSE OR THE SURFACE MAY BE UNTRIMMED 
             AT THE SYMMETRY PLANE. PLEASE USE THE *NORMAL OPTION TO SPECIFY 
             THE PROPER SURFACE NORMAL.

 ***WARNING: Abaqus WILL NOT ADJUST THE SURFACE NORMAL FOR THE SYMMETRY PLANE 
             AT NODE 280 INSTANCE STALK_7-RIND-1 OF SURFACE ASSEMBLY_Inner 
             Rind. THE MESH MAY BE VERY COARSE OR THE SURFACE MAY BE UNTRIMMED 
             AT THE SYMMETRY PLANE. PLEASE USE THE *NORMAL OPTION TO SPECIFY 
             THE PROPER SURFACE NORMAL.

 ***WARNING: Abaqus WILL NOT ADJUST THE SURFACE NORMAL FOR THE SYMMETRY PLANE 
             AT NODE 281 INSTANCE STALK_7-RIND-1 OF SURFACE ASSEMBLY_Inner 
             Rind. THE MESH MAY BE VERY COARSE OR THE SURFACE MAY BE UNTRIMMED 
             AT THE SYMMETRY PLANE. PLEASE USE THE *NORMAL OPTION TO SPECIFY 
             THE PROPER SURFACE NORMAL.

 ***WARNING: Abaqus WILL NOT ADJUST THE SURFACE NORMAL FOR THE SYMMETRY PLANE 
             AT NODE 282 INSTANCE STALK_7-RIND-1 OF SURFACE ASSEMBLY_Inner 
             Rind. THE MESH MAY BE VERY COARSE OR THE SURFACE MAY BE UNTRIMMED 
             AT THE SYMMETRY PLANE. PLEASE USE THE *NORMAL OPTION TO SPECIFY 
             THE PROPER SURFACE NORMAL.

 ***WARNING: Abaqus WILL NOT ADJUST THE SURFACE NORMAL FOR THE SYMMETRY PLANE 
             AT NODE 284 INSTANCE STALK_7-RIND-1 OF SURFACE ASSEMBLY_Inner 
             Rind. THE MESH MAY BE VERY COARSE OR THE SURFACE MAY BE UNTRIMMED 
             AT THE SYMMETRY PLANE. PLEASE USE THE *NORMAL OPTION TO SPECIFY 
             THE PROPER SURFACE NORMAL.

 ***WARNING: Abaqus WILL NOT ADJUST THE SURFACE NORMAL FOR THE SYMMETRY PLANE 
             AT NODE 285 INSTANCE STALK_7-RIND-1 OF SURFACE ASSEMBLY_Inner 
             Rind. THE MESH MAY BE VERY COARSE OR THE SURFACE MAY BE UNTRIMMED 
             AT THE SYMMETRY PLANE. PLEASE USE THE *NORMAL OPTION TO SPECIFY 
             THE PROPER SURFACE NORMAL.

 ***WARNING: Abaqus WILL NOT ADJUST THE SURFACE NORMAL FOR THE SYMMETRY PLANE 
             AT NODE 286 INSTANCE STALK_7-RIND-1 OF SURFACE ASSEMBLY_Inner 
             Rind. THE MESH MAY BE VERY COARSE OR THE SURFACE MAY BE UNTRIMMED 
             AT THE SYMMETRY PLANE. PLEASE USE THE *NORMAL OPTION TO SPECIFY 
             THE PROPER SURFACE NORMAL.

 ***WARNING: Abaqus WILL NOT ADJUST THE SURFACE NORMAL FOR THE SYMMETRY PLANE 
             AT NODE 288 INSTANCE STALK_7-RIND-1 OF SURFACE ASSEMBLY_Inner 
             Rind. THE MESH MAY BE VERY COARSE OR THE SURFACE MAY BE UNTRIMMED 
             AT THE SYMMETRY PLANE. PLEASE USE THE *NORMAL OPTION TO SPECIFY 
             THE PROPER SURFACE NORMAL.

 ***WARNING: Abaqus WILL NOT ADJUST THE SURFACE NORMAL FOR THE SYMMETRY PLANE 
             AT NODE 289 INSTANCE STALK_7-RIND-1 OF SURFACE ASSEMBLY_Inner 
             Rind. THE MESH MAY BE VERY COARSE OR THE SURFACE MAY BE UNTRIMMED 
             AT THE SYMMETRY PLANE. PLEASE USE THE *NORMAL OPTION TO SPECIFY 
             THE PROPER SURFACE NORMAL.

 ***WARNING: Abaqus WILL NOT ADJUST THE SURFACE NORMAL FOR THE SYMMETRY PLANE 
             AT NODE 290 INSTANCE STALK_7-RIND-1 OF SURFACE ASSEMBLY_Inner 
             Rind. THE MESH MAY BE VERY COARSE OR THE SURFACE MAY BE UNTRIMMED 
             AT THE SYMMETRY PLANE. PLEASE USE THE *NORMAL OPTION TO SPECIFY 
             THE PROPER SURFACE NORMAL.

 ***WARNING: Abaqus WILL NOT ADJUST THE SURFACE NORMAL FOR THE SYMMETRY PLANE 
             AT NODE 292 INSTANCE STALK_7-RIND-1 OF SURFACE ASSEMBLY_Inner 
             Rind. THE MESH MAY BE VERY COARSE OR THE SURFACE MAY BE UNTRIMMED 
             AT THE SYMMETRY PLANE. PLEASE USE THE *NORMAL OPTION TO SPECIFY 
             THE PROPER SURFACE NORMAL.

 ***WARNING: Abaqus WILL NOT ADJUST THE SURFACE NORMAL FOR THE SYMMETRY PLANE 
             AT NODE 293 INSTANCE STALK_7-RIND-1 OF SURFACE ASSEMBLY_Inner 
             Rind. THE MESH MAY BE VERY COARSE OR THE SURFACE MAY BE UNTRIMMED 
             AT THE SYMMETRY PLANE. PLEASE USE THE *NORMAL OPTION TO SPECIFY 
             THE PROPER SURFACE NORMAL.

 ***WARNING: Abaqus WILL NOT ADJUST THE SURFACE NORMAL FOR THE SYMMETRY PLANE 
             AT NODE 294 INSTANCE STALK_7-RIND-1 OF SURFACE ASSEMBLY_Inner 
             Rind. THE MESH MAY BE VERY COARSE OR THE SURFACE MAY BE UNTRIMMED 
             AT THE SYMMETRY PLANE. PLEASE USE THE *NORMAL OPTION TO SPECIFY 
             THE PROPER SURFACE NORMAL.

 ***WARNING: Abaqus WILL NOT ADJUST THE SURFACE NORMAL FOR THE SYMMETRY PLANE 
             AT NODE 296 INSTANCE STALK_7-RIND-1 OF SURFACE ASSEMBLY_Inner 
             Rind. THE MESH MAY BE VERY COARSE OR THE SURFACE MAY BE UNTRIMMED 
             AT THE SYMMETRY PLANE. PLEASE USE THE *NORMAL OPTION TO SPECIFY 
             THE PROPER SURFACE NORMAL.

 ***WARNING: Abaqus WILL NOT ADJUST THE SURFACE NORMAL FOR THE SYMMETRY PLANE 
             AT NODE 297 INSTANCE STALK_7-RIND-1 OF SURFACE ASSEMBLY_Inner 
             Rind. THE MESH MAY BE VERY COARSE OR THE SURFACE MAY BE UNTRIMMED 
             AT THE SYMMETRY PLANE. PLEASE USE THE *NORMAL OPTION TO SPECIFY 
             THE PROPER SURFACE NORMAL.

 ***WARNING: Abaqus WILL NOT ADJUST THE SURFACE NORMAL FOR THE SYMMETRY PLANE 
             AT NODE 298 INSTANCE STALK_7-RIND-1 OF SURFACE ASSEMBLY_Inner 
             Rind. THE MESH MAY BE VERY COARSE OR THE SURFACE MAY BE UNTRIMMED 
             AT THE SYMMETRY PLANE. PLEASE USE THE *NORMAL OPTION TO SPECIFY 
             THE PROPER SURFACE NORMAL.

 ***WARNING: Abaqus WILL NOT ADJUST THE SURFACE NORMAL FOR THE SYMMETRY PLANE 
             AT NODE 300 INSTANCE STALK_7-RIND-1 OF SURFACE ASSEMBLY_Inner 
             Rind. THE MESH MAY BE VERY COARSE OR THE SURFACE MAY BE UNTRIMMED 
             AT THE SYMMETRY PLANE. PLEASE USE THE *NORMAL OPTION TO SPECIFY 
             THE PROPER SURFACE NORMAL.

 ***WARNING: Abaqus WILL NOT ADJUST THE SURFACE NORMAL FOR THE SYMMETRY PLANE 
             AT NODE 301 INSTANCE STALK_7-RIND-1 OF SURFACE ASSEMBLY_Inner 
             Rind. THE MESH MAY BE VERY COARSE OR THE SURFACE MAY BE UNTRIMMED 
             AT THE SYMMETRY PLANE. PLEASE USE THE *NORMAL OPTION TO SPECIFY 
             THE PROPER SURFACE NORMAL.

 ***WARNING: Abaqus WILL NOT ADJUST THE SURFACE NORMAL FOR THE SYMMETRY PLANE 
             AT NODE 302 INSTANCE STALK_7-RIND-1 OF SURFACE ASSEMBLY_Inner 
             Rind. THE MESH MAY BE VERY COARSE OR THE SURFACE MAY BE UNTRIMMED 
             AT THE SYMMETRY PLANE. PLEASE USE THE *NORMAL OPTION TO SPECIFY 
             THE PROPER SURFACE NORMAL.

 ***WARNING: Abaqus WILL NOT ADJUST THE SURFACE NORMAL FOR THE SYMMETRY PLANE 
             AT NODE 304 INSTANCE STALK_7-RIND-1 OF SURFACE ASSEMBLY_Inner 
             Rind. THE MESH MAY BE VERY COARSE OR THE SURFACE MAY BE UNTRIMMED 
             AT THE SYMMETRY PLANE. PLEASE USE THE *NORMAL OPTION TO SPECIFY 
             THE PROPER SURFACE NORMAL.

 ***WARNING: Abaqus WILL NOT ADJUST THE SURFACE NORMAL FOR THE SYMMETRY PLANE 
             AT NODE 305 INSTANCE STALK_7-RIND-1 OF SURFACE ASSEMBLY_Inner 
             Rind. THE MESH MAY BE VERY COARSE OR THE SURFACE MAY BE UNTRIMMED 
             AT THE SYMMETRY PLANE. PLEASE USE THE *NORMAL OPTION TO SPECIFY 
             THE PROPER SURFACE NORMAL.

 ***WARNING: Abaqus WILL NOT ADJUST THE SURFACE NORMAL FOR THE SYMMETRY PLANE 
             AT NODE 306 INSTANCE STALK_7-RIND-1 OF SURFACE ASSEMBLY_Inner 
             Rind. THE MESH MAY BE VERY COARSE OR THE SURFACE MAY BE UNTRIMMED 
             AT THE SYMMETRY PLANE. PLEASE USE THE *NORMAL OPTION TO SPECIFY 
             THE PROPER SURFACE NORMAL.

 ***WARNING: Abaqus WILL NOT ADJUST THE SURFACE NORMAL FOR THE SYMMETRY PLANE 
             AT NODE 308 INSTANCE STALK_7-RIND-1 OF SURFACE ASSEMBLY_Inner 
             Rind. THE MESH MAY BE VERY COARSE OR THE SURFACE MAY BE UNTRIMMED 
             AT THE SYMMETRY PLANE. PLEASE USE THE *NORMAL OPTION TO SPECIFY 
             THE PROPER SURFACE NORMAL.

 ***WARNING: Abaqus WILL NOT ADJUST THE SURFACE NORMAL FOR THE SYMMETRY PLANE 
             AT NODE 309 INSTANCE STALK_7-RIND-1 OF SURFACE ASSEMBLY_Inner 
             Rind. THE MESH MAY BE VERY COARSE OR THE SURFACE MAY BE UNTRIMMED 
             AT THE SYMMETRY PLANE. PLEASE USE THE *NORMAL OPTION TO SPECIFY 
             THE PROPER SURFACE NORMAL.

 ***WARNING: Abaqus WILL NOT ADJUST THE SURFACE NORMAL FOR THE SYMMETRY PLANE 
             AT NODE 310 INSTANCE STALK_7-RIND-1 OF SURFACE ASSEMBLY_Inner 
             Rind. THE MESH MAY BE VERY COARSE OR THE SURFACE MAY BE UNTRIMMED 
             AT THE SYMMETRY PLANE. PLEASE USE THE *NORMAL OPTION TO SPECIFY 
             THE PROPER SURFACE NORMAL.

 ***WARNING: Abaqus WILL NOT ADJUST THE SURFACE NORMAL FOR THE SYMMETRY PLANE 
             AT NODE 312 INSTANCE STALK_7-RIND-1 OF SURFACE ASSEMBLY_Inner 
             Rind. THE MESH MAY BE VERY COARSE OR THE SURFACE MAY BE UNTRIMMED 
             AT THE SYMMETRY PLANE. PLEASE USE THE *NORMAL OPTION TO SPECIFY 
             THE PROPER SURFACE NORMAL.

 ***WARNING: Abaqus WILL NOT ADJUST THE SURFACE NORMAL FOR THE SYMMETRY PLANE 
             AT NODE 313 INSTANCE STALK_7-RIND-1 OF SURFACE ASSEMBLY_Inner 
             Rind. THE MESH MAY BE VERY COARSE OR THE SURFACE MAY BE UNTRIMMED 
             AT THE SYMMETRY PLANE. PLEASE USE THE *NORMAL OPTION TO SPECIFY 
             THE PROPER SURFACE NORMAL.

 ***WARNING: Abaqus WILL NOT ADJUST THE SURFACE NORMAL FOR THE SYMMETRY PLANE 
             AT NODE 314 INSTANCE STALK_7-RIND-1 OF SURFACE ASSEMBLY_Inner 
             Rind. THE MESH MAY BE VERY COARSE OR THE SURFACE MAY BE UNTRIMMED 
             AT THE SYMMETRY PLANE. PLEASE USE THE *NORMAL OPTION TO SPECIFY 
             THE PROPER SURFACE NORMAL.

 ***WARNING: Abaqus WILL NOT ADJUST THE SURFACE NORMAL FOR THE SYMMETRY PLANE 
             AT NODE 384 INSTANCE STALK_7-RIND-1 OF SURFACE ASSEMBLY_Inner 
             Rind. THE MESH MAY BE VERY COARSE OR THE SURFACE MAY BE UNTRIMMED 
             AT THE SYMMETRY PLANE. PLEASE USE THE *NORMAL OPTION TO SPECIFY 
             THE PROPER SURFACE NORMAL.

 ***WARNING: Abaqus WILL NOT ADJUST THE SURFACE NORMAL FOR THE SYMMETRY PLANE 
             AT NODE 385 INSTANCE STALK_7-RIND-1 OF SURFACE ASSEMBLY_Inner 
             Rind. THE MESH MAY BE VERY COARSE OR THE SURFACE MAY BE UNTRIMMED 
             AT THE SYMMETRY PLANE. PLEASE USE THE *NORMAL OPTION TO SPECIFY 
             THE PROPER SURFACE NORMAL.

 ***WARNING: Abaqus WILL NOT ADJUST THE SURFACE NORMAL FOR THE SYMMETRY PLANE 
             AT NODE 386 INSTANCE STALK_7-RIND-1 OF SURFACE ASSEMBLY_Inner 
             Rind. THE MESH MAY BE VERY COARSE OR THE SURFACE MAY BE UNTRIMMED 
             AT THE SYMMETRY PLANE. PLEASE USE THE *NORMAL OPTION TO SPECIFY 
             THE PROPER SURFACE NORMAL.

 ***WARNING: Abaqus WILL NOT ADJUST THE SURFACE NORMAL FOR THE SYMMETRY PLANE 
             AT NODE 388 INSTANCE STALK_7-RIND-1 OF SURFACE ASSEMBLY_Inner 
             Rind. THE MESH MAY BE VERY COARSE OR THE SURFACE MAY BE UNTRIMMED 
             AT THE SYMMETRY PLANE. PLEASE USE THE *NORMAL OPTION TO SPECIFY 
             THE PROPER SURFACE NORMAL.

 ***WARNING: Abaqus WILL NOT ADJUST THE SURFACE NORMAL FOR THE SYMMETRY PLANE 
             AT NODE 389 INSTANCE STALK_7-RIND-1 OF SURFACE ASSEMBLY_Inner 
             Rind. THE MESH MAY BE VERY COARSE OR THE SURFACE MAY BE UNTRIMMED 
             AT THE SYMMETRY PLANE. PLEASE USE THE *NORMAL OPTION TO SPECIFY 
             THE PROPER SURFACE NORMAL.

 ***WARNING: Abaqus WILL NOT ADJUST THE SURFACE NORMAL FOR THE SYMMETRY PLANE 
             AT NODE 390 INSTANCE STALK_7-RIND-1 OF SURFACE ASSEMBLY_Inner 
             Rind. THE MESH MAY BE VERY COARSE OR THE SURFACE MAY BE UNTRIMMED 
             AT THE SYMMETRY PLANE. PLEASE USE THE *NORMAL OPTION TO SPECIFY 
             THE PROPER SURFACE NORMAL.

 ***WARNING: Abaqus WILL NOT ADJUST THE SURFACE NORMAL FOR THE SYMMETRY PLANE 
             AT NODE 392 INSTANCE STALK_7-RIND-1 OF SURFACE ASSEMBLY_Inner 
             Rind. THE MESH MAY BE VERY COARSE OR THE SURFACE MAY BE UNTRIMMED 
             AT THE SYMMETRY PLANE. PLEASE USE THE *NORMAL OPTION TO SPECIFY 
             THE PROPER SURFACE NORMAL.

 ***WARNING: Abaqus WILL NOT ADJUST THE SURFACE NORMAL FOR THE SYMMETRY PLANE 
             AT NODE 393 INSTANCE STALK_7-RIND-1 OF SURFACE ASSEMBLY_Inner 
             Rind. THE MESH MAY BE VERY COARSE OR THE SURFACE MAY BE UNTRIMMED 
             AT THE SYMMETRY PLANE. PLEASE USE THE *NORMAL OPTION TO SPECIFY 
             THE PROPER SURFACE NORMAL.

 ***WARNING: Abaqus WILL NOT ADJUST THE SURFACE NORMAL FOR THE SYMMETRY PLANE 
             AT NODE 394 INSTANCE STALK_7-RIND-1 OF SURFACE ASSEMBLY_Inner 
             Rind. THE MESH MAY BE VERY COARSE OR THE SURFACE MAY BE UNTRIMMED 
             AT THE SYMMETRY PLANE. PLEASE USE THE *NORMAL OPTION TO SPECIFY 
             THE PROPER SURFACE NORMAL.

 ***WARNING: Abaqus WILL NOT ADJUST THE SURFACE NORMAL FOR THE SYMMETRY PLANE 
             AT NODE 396 INSTANCE STALK_7-RIND-1 OF SURFACE ASSEMBLY_Inner 
             Rind. THE MESH MAY BE VERY COARSE OR THE SURFACE MAY BE UNTRIMMED 
             AT THE SYMMETRY PLANE. PLEASE USE THE *NORMAL OPTION TO SPECIFY 
             THE PROPER SURFACE NORMAL.

 ***WARNING: Abaqus WILL NOT ADJUST THE SURFACE NORMAL FOR THE SYMMETRY PLANE 
             AT NODE 397 INSTANCE STALK_7-RIND-1 OF SURFACE ASSEMBLY_Inner 
             Rind. THE MESH MAY BE VERY COARSE OR THE SURFACE MAY BE UNTRIMMED 
             AT THE SYMMETRY PLANE. PLEASE USE THE *NORMAL OPTION TO SPECIFY 
             THE PROPER SURFACE NORMAL.

 ***WARNING: Abaqus WILL NOT ADJUST THE SURFACE NORMAL FOR THE SYMMETRY PLANE 
             AT NODE 398 INSTANCE STALK_7-RIND-1 OF SURFACE ASSEMBLY_Inner 
             Rind. THE MESH MAY BE VERY COARSE OR THE SURFACE MAY BE UNTRIMMED 
             AT THE SYMMETRY PLANE. PLEASE USE THE *NORMAL OPTION TO SPECIFY 
             THE PROPER SURFACE NORMAL.

 ***WARNING: Abaqus WILL NOT ADJUST THE SURFACE NORMAL FOR THE SYMMETRY PLANE 
             AT NODE 400 INSTANCE STALK_7-RIND-1 OF SURFACE ASSEMBLY_Inner 
             Rind. THE MESH MAY BE VERY COARSE OR THE SURFACE MAY BE UNTRIMMED 
             AT THE SYMMETRY PLANE. PLEASE USE THE *NORMAL OPTION TO SPECIFY 
             THE PROPER SURFACE NORMAL.

 ***WARNING: Abaqus WILL NOT ADJUST THE SURFACE NORMAL FOR THE SYMMETRY PLANE 
             AT NODE 401 INSTANCE STALK_7-RIND-1 OF SURFACE ASSEMBLY_Inner 
             Rind. THE MESH MAY BE VERY COARSE OR THE SURFACE MAY BE UNTRIMMED 
             AT THE SYMMETRY PLANE. PLEASE USE THE *NORMAL OPTION TO SPECIFY 
             THE PROPER SURFACE NORMAL.

 ***WARNING: Abaqus WILL NOT ADJUST THE SURFACE NORMAL FOR THE SYMMETRY PLANE 
             AT NODE 402 INSTANCE STALK_7-RIND-1 OF SURFACE ASSEMBLY_Inner 
             Rind. THE MESH MAY BE VERY COARSE OR THE SURFACE MAY BE UNTRIMMED 
             AT THE SYMMETRY PLANE. PLEASE USE THE *NORMAL OPTION TO SPECIFY 
             THE PROPER SURFACE NORMAL.

 ***WARNING: Abaqus WILL NOT ADJUST THE SURFACE NORMAL FOR THE SYMMETRY PLANE 
             AT NODE 404 INSTANCE STALK_7-RIND-1 OF SURFACE ASSEMBLY_Inner 
             Rind. THE MESH MAY BE VERY COARSE OR THE SURFACE MAY BE UNTRIMMED 
             AT THE SYMMETRY PLANE. PLEASE USE THE *NORMAL OPTION TO SPECIFY 
             THE PROPER SURFACE NORMAL.

 ***WARNING: Abaqus WILL NOT ADJUST THE SURFACE NORMAL FOR THE SYMMETRY PLANE 
             AT NODE 405 INSTANCE STALK_7-RIND-1 OF SURFACE ASSEMBLY_Inner 
             Rind. THE MESH MAY BE VERY COARSE OR THE SURFACE MAY BE UNTRIMMED 
             AT THE SYMMETRY PLANE. PLEASE USE THE *NORMAL OPTION TO SPECIFY 
             THE PROPER SURFACE NORMAL.

 ***WARNING: Abaqus WILL NOT ADJUST THE SURFACE NORMAL FOR THE SYMMETRY PLANE 
             AT NODE 406 INSTANCE STALK_7-RIND-1 OF SURFACE ASSEMBLY_Inner 
             Rind. THE MESH MAY BE VERY COARSE OR THE SURFACE MAY BE UNTRIMMED 
             AT THE SYMMETRY PLANE. PLEASE USE THE *NORMAL OPTION TO SPECIFY 
             THE PROPER SURFACE NORMAL.

 ***WARNING: Abaqus WILL NOT ADJUST THE SURFACE NORMAL FOR THE SYMMETRY PLANE 
             AT NODE 408 INSTANCE STALK_7-RIND-1 OF SURFACE ASSEMBLY_Inner 
             Rind. THE MESH MAY BE VERY COARSE OR THE SURFACE MAY BE UNTRIMMED 
             AT THE SYMMETRY PLANE. PLEASE USE THE *NORMAL OPTION TO SPECIFY 
             THE PROPER SURFACE NORMAL.

 ***WARNING: Abaqus WILL NOT ADJUST THE SURFACE NORMAL FOR THE SYMMETRY PLANE 
             AT NODE 409 INSTANCE STALK_7-RIND-1 OF SURFACE ASSEMBLY_Inner 
             Rind. THE MESH MAY BE VERY COARSE OR THE SURFACE MAY BE UNTRIMMED 
             AT THE SYMMETRY PLANE. PLEASE USE THE *NORMAL OPTION TO SPECIFY 
             THE PROPER SURFACE NORMAL.

 ***WARNING: Abaqus WILL NOT ADJUST THE SURFACE NORMAL FOR THE SYMMETRY PLANE 
             AT NODE 410 INSTANCE STALK_7-RIND-1 OF SURFACE ASSEMBLY_Inner 
             Rind. THE MESH MAY BE VERY COARSE OR THE SURFACE MAY BE UNTRIMMED 
             AT THE SYMMETRY PLANE. PLEASE USE THE *NORMAL OPTION TO SPECIFY 
             THE PROPER SURFACE NORMAL.

 ***WARNING: Abaqus WILL NOT ADJUST THE SURFACE NORMAL FOR THE SYMMETRY PLANE 
             AT NODE 412 INSTANCE STALK_7-RIND-1 OF SURFACE ASSEMBLY_Inner 
             Rind. THE MESH MAY BE VERY COARSE OR THE SURFACE MAY BE UNTRIMMED 
             AT THE SYMMETRY PLANE. PLEASE USE THE *NORMAL OPTION TO SPECIFY 
             THE PROPER SURFACE NORMAL.

 ***WARNING: Abaqus WILL NOT ADJUST THE SURFACE NORMAL FOR THE SYMMETRY PLANE 
             AT NODE 413 INSTANCE STALK_7-RIND-1 OF SURFACE ASSEMBLY_Inner 
             Rind. THE MESH MAY BE VERY COARSE OR THE SURFACE MAY BE UNTRIMMED 
             AT THE SYMMETRY PLANE. PLEASE USE THE *NORMAL OPTION TO SPECIFY 
             THE PROPER SURFACE NORMAL.

 ***WARNING: Abaqus WILL NOT ADJUST THE SURFACE NORMAL FOR THE SYMMETRY PLANE 
             AT NODE 414 INSTANCE STALK_7-RIND-1 OF SURFACE ASSEMBLY_Inner 
             Rind. THE MESH MAY BE VERY COARSE OR THE SURFACE MAY BE UNTRIMMED 
             AT THE SYMMETRY PLANE. PLEASE USE THE *NORMAL OPTION TO SPECIFY 
             THE PROPER SURFACE NORMAL.

 ***WARNING: Abaqus WILL NOT ADJUST THE SURFACE NORMAL FOR THE SYMMETRY PLANE 
             AT NODE 416 INSTANCE STALK_7-RIND-1 OF SURFACE ASSEMBLY_Inner 
             Rind. THE MESH MAY BE VERY COARSE OR THE SURFACE MAY BE UNTRIMMED 
             AT THE SYMMETRY PLANE. PLEASE USE THE *NORMAL OPTION TO SPECIFY 
             THE PROPER SURFACE NORMAL.

 ***WARNING: Abaqus WILL NOT ADJUST THE SURFACE NORMAL FOR THE SYMMETRY PLANE 
             AT NODE 417 INSTANCE STALK_7-RIND-1 OF SURFACE ASSEMBLY_Inner 
             Rind. THE MESH MAY BE VERY COARSE OR THE SURFACE MAY BE UNTRIMMED 
             AT THE SYMMETRY PLANE. PLEASE USE THE *NORMAL OPTION TO SPECIFY 
             THE PROPER SURFACE NORMAL.

 ***WARNING: Abaqus WILL NOT ADJUST THE SURFACE NORMAL FOR THE SYMMETRY PLANE 
             AT NODE 418 INSTANCE STALK_7-RIND-1 OF SURFACE ASSEMBLY_Inner 
             Rind. THE MESH MAY BE VERY COARSE OR THE SURFACE MAY BE UNTRIMMED 
             AT THE SYMMETRY PLANE. PLEASE USE THE *NORMAL OPTION TO SPECIFY 
             THE PROPER SURFACE NORMAL.

 ***WARNING: Abaqus WILL NOT ADJUST THE SURFACE NORMAL FOR THE SYMMETRY PLANE 
             AT NODE 420 INSTANCE STALK_7-RIND-1 OF SURFACE ASSEMBLY_Inner 
             Rind. THE MESH MAY BE VERY COARSE OR THE SURFACE MAY BE UNTRIMMED 
             AT THE SYMMETRY PLANE. PLEASE USE THE *NORMAL OPTION TO SPECIFY 
             THE PROPER SURFACE NORMAL.

 ***WARNING: Abaqus WILL NOT ADJUST THE SURFACE NORMAL FOR THE SYMMETRY PLANE 
             AT NODE 421 INSTANCE STALK_7-RIND-1 OF SURFACE ASSEMBLY_Inner 
             Rind. THE MESH MAY BE VERY COARSE OR THE SURFACE MAY BE UNTRIMMED 
             AT THE SYMMETRY PLANE. PLEASE USE THE *NORMAL OPTION TO SPECIFY 
             THE PROPER SURFACE NORMAL.

 ***WARNING: Abaqus WILL NOT ADJUST THE SURFACE NORMAL FOR THE SYMMETRY PLANE 
             AT NODE 422 INSTANCE STALK_7-RIND-1 OF SURFACE ASSEMBLY_Inner 
             Rind. THE MESH MAY BE VERY COARSE OR THE SURFACE MAY BE UNTRIMMED 
             AT THE SYMMETRY PLANE. PLEASE USE THE *NORMAL OPTION TO SPECIFY 
             THE PROPER SURFACE NORMAL.

 ***WARNING: Abaqus WILL NOT ADJUST THE SURFACE NORMAL FOR THE SYMMETRY PLANE 
             AT NODE 424 INSTANCE STALK_7-RIND-1 OF SURFACE ASSEMBLY_Inner 
             Rind. THE MESH MAY BE VERY COARSE OR THE SURFACE MAY BE UNTRIMMED 
             AT THE SYMMETRY PLANE. PLEASE USE THE *NORMAL OPTION TO SPECIFY 
             THE PROPER SURFACE NORMAL.

 ***WARNING: Abaqus WILL NOT ADJUST THE SURFACE NORMAL FOR THE SYMMETRY PLANE 
             AT NODE 425 INSTANCE STALK_7-RIND-1 OF SURFACE ASSEMBLY_Inner 
             Rind. THE MESH MAY BE VERY COARSE OR THE SURFACE MAY BE UNTRIMMED 
             AT THE SYMMETRY PLANE. PLEASE USE THE *NORMAL OPTION TO SPECIFY 
             THE PROPER SURFACE NORMAL.

 ***WARNING: Abaqus WILL NOT ADJUST THE SURFACE NORMAL FOR THE SYMMETRY PLANE 
             AT NODE 426 INSTANCE STALK_7-RIND-1 OF SURFACE ASSEMBLY_Inner 
             Rind. THE MESH MAY BE VERY COARSE OR THE SURFACE MAY BE UNTRIMMED 
             AT THE SYMMETRY PLANE. PLEASE USE THE *NORMAL OPTION TO SPECIFY 
             THE PROPER SURFACE NORMAL.

 ***WARNING: Abaqus WILL NOT ADJUST THE SURFACE NORMAL FOR THE SYMMETRY PLANE 
             AT NODE 428 INSTANCE STALK_7-RIND-1 OF SURFACE ASSEMBLY_Inner 
             Rind. THE MESH MAY BE VERY COARSE OR THE SURFACE MAY BE UNTRIMMED 
             AT THE SYMMETRY PLANE. PLEASE USE THE *NORMAL OPTION TO SPECIFY 
             THE PROPER SURFACE NORMAL.

 ***WARNING: Abaqus WILL NOT ADJUST THE SURFACE NORMAL FOR THE SYMMETRY PLANE 
             AT NODE 429 INSTANCE STALK_7-RIND-1 OF SURFACE ASSEMBLY_Inner 
             Rind. THE MESH MAY BE VERY COARSE OR THE SURFACE MAY BE UNTRIMMED 
             AT THE SYMMETRY PLANE. PLEASE USE THE *NORMAL OPTION TO SPECIFY 
             THE PROPER SURFACE NORMAL.

 ***WARNING: Abaqus WILL NOT ADJUST THE SURFACE NORMAL FOR THE SYMMETRY PLANE 
             AT NODE 430 INSTANCE STALK_7-RIND-1 OF SURFACE ASSEMBLY_Inner 
             Rind. THE MESH MAY BE VERY COARSE OR THE SURFACE MAY BE UNTRIMMED 
             AT THE SYMMETRY PLANE. PLEASE USE THE *NORMAL OPTION TO SPECIFY 
             THE PROPER SURFACE NORMAL.

 ***WARNING: Abaqus WILL NOT ADJUST THE SURFACE NORMAL FOR THE SYMMETRY PLANE 
             AT NODE 432 INSTANCE STALK_7-RIND-1 OF SURFACE ASSEMBLY_Inner 
             Rind. THE MESH MAY BE VERY COARSE OR THE SURFACE MAY BE UNTRIMMED 
             AT THE SYMMETRY PLANE. PLEASE USE THE *NORMAL OPTION TO SPECIFY 
             THE PROPER SURFACE NORMAL.

 ***WARNING: Abaqus WILL NOT ADJUST THE SURFACE NORMAL FOR THE SYMMETRY PLANE 
             AT NODE 433 INSTANCE STALK_7-RIND-1 OF SURFACE ASSEMBLY_Inner 
             Rind. THE MESH MAY BE VERY COARSE OR THE SURFACE MAY BE UNTRIMMED 
             AT THE SYMMETRY PLANE. PLEASE USE THE *NORMAL OPTION TO SPECIFY 
             THE PROPER SURFACE NORMAL.

 ***WARNING: Abaqus WILL NOT ADJUST THE SURFACE NORMAL FOR THE SYMMETRY PLANE 
             AT NODE 434 INSTANCE STALK_7-RIND-1 OF SURFACE ASSEMBLY_Inner 
             Rind. THE MESH MAY BE VERY COARSE OR THE SURFACE MAY BE UNTRIMMED 
             AT THE SYMMETRY PLANE. PLEASE USE THE *NORMAL OPTION TO SPECIFY 
             THE PROPER SURFACE NORMAL.

 ***WARNING: Abaqus WILL NOT ADJUST THE SURFACE NORMAL FOR THE SYMMETRY PLANE 
             AT NODE 436 INSTANCE STALK_7-RIND-1 OF SURFACE ASSEMBLY_Inner 
             Rind. THE MESH MAY BE VERY COARSE OR THE SURFACE MAY BE UNTRIMMED 
             AT THE SYMMETRY PLANE. PLEASE USE THE *NORMAL OPTION TO SPECIFY 
             THE PROPER SURFACE NORMAL.

 ***WARNING: Abaqus WILL NOT ADJUST THE SURFACE NORMAL FOR THE SYMMETRY PLANE 
             AT NODE 437 INSTANCE STALK_7-RIND-1 OF SURFACE ASSEMBLY_Inner 
             Rind. THE MESH MAY BE VERY COARSE OR THE SURFACE MAY BE UNTRIMMED 
             AT THE SYMMETRY PLANE. PLEASE USE THE *NORMAL OPTION TO SPECIFY 
             THE PROPER SURFACE NORMAL.

 ***WARNING: Abaqus WILL NOT ADJUST THE SURFACE NORMAL FOR THE SYMMETRY PLANE 
             AT NODE 438 INSTANCE STALK_7-RIND-1 OF SURFACE ASSEMBLY_Inner 
             Rind. THE MESH MAY BE VERY COARSE OR THE SURFACE MAY BE UNTRIMMED 
             AT THE SYMMETRY PLANE. PLEASE USE THE *NORMAL OPTION TO SPECIFY 
             THE PROPER SURFACE NORMAL.

 ***WARNING: Abaqus WILL NOT ADJUST THE SURFACE NORMAL FOR THE SYMMETRY PLANE 
             AT NODE 440 INSTANCE STALK_7-RIND-1 OF SURFACE ASSEMBLY_Inner 
             Rind. THE MESH MAY BE VERY COARSE OR THE SURFACE MAY BE UNTRIMMED 
             AT THE SYMMETRY PLANE. PLEASE USE THE *NORMAL OPTION TO SPECIFY 
             THE PROPER SURFACE NORMAL.

 ***WARNING: Abaqus WILL NOT ADJUST THE SURFACE NORMAL FOR THE SYMMETRY PLANE 
             AT NODE 441 INSTANCE STALK_7-RIND-1 OF SURFACE ASSEMBLY_Inner 
             Rind. THE MESH MAY BE VERY COARSE OR THE SURFACE MAY BE UNTRIMMED 
             AT THE SYMMETRY PLANE. PLEASE USE THE *NORMAL OPTION TO SPECIFY 
             THE PROPER SURFACE NORMAL.

 ***WARNING: Abaqus WILL NOT ADJUST THE SURFACE NORMAL FOR THE SYMMETRY PLANE 
             AT NODE 442 INSTANCE STALK_7-RIND-1 OF SURFACE ASSEMBLY_Inner 
             Rind. THE MESH MAY BE VERY COARSE OR THE SURFACE MAY BE UNTRIMMED 
             AT THE SYMMETRY PLANE. PLEASE USE THE *NORMAL OPTION TO SPECIFY 
             THE PROPER SURFACE NORMAL.

 ***WARNING: Abaqus WILL NOT ADJUST THE SURFACE NORMAL FOR THE SYMMETRY PLANE 
             AT NODE 444 INSTANCE STALK_7-RIND-1 OF SURFACE ASSEMBLY_Inner 
             Rind. THE MESH MAY BE VERY COARSE OR THE SURFACE MAY BE UNTRIMMED 
             AT THE SYMMETRY PLANE. PLEASE USE THE *NORMAL OPTION TO SPECIFY 
             THE PROPER SURFACE NORMAL.

 ***WARNING: Abaqus WILL NOT ADJUST THE SURFACE NORMAL FOR THE SYMMETRY PLANE 
             AT NODE 445 INSTANCE STALK_7-RIND-1 OF SURFACE ASSEMBLY_Inner 
             Rind. THE MESH MAY BE VERY COARSE OR THE SURFACE MAY BE UNTRIMMED 
             AT THE SYMMETRY PLANE. PLEASE USE THE *NORMAL OPTION TO SPECIFY 
             THE PROPER SURFACE NORMAL.

 ***WARNING: Abaqus WILL NOT ADJUST THE SURFACE NORMAL FOR THE SYMMETRY PLANE 
             AT NODE 446 INSTANCE STALK_7-RIND-1 OF SURFACE ASSEMBLY_Inner 
             Rind. THE MESH MAY BE VERY COARSE OR THE SURFACE MAY BE UNTRIMMED 
             AT THE SYMMETRY PLANE. PLEASE USE THE *NORMAL OPTION TO SPECIFY 
             THE PROPER SURFACE NORMAL.

 ***WARNING: Abaqus WILL NOT ADJUST THE SURFACE NORMAL FOR THE SYMMETRY PLANE 
             AT NODE 448 INSTANCE STALK_7-RIND-1 OF SURFACE ASSEMBLY_Inner 
             Rind. THE MESH MAY BE VERY COARSE OR THE SURFACE MAY BE UNTRIMMED 
             AT THE SYMMETRY PLANE. PLEASE USE THE *NORMAL OPTION TO SPECIFY 
             THE PROPER SURFACE NORMAL.

 ***WARNING: Abaqus WILL NOT ADJUST THE SURFACE NORMAL FOR THE SYMMETRY PLANE 
             AT NODE 449 INSTANCE STALK_7-RIND-1 OF SURFACE ASSEMBLY_Inner 
             Rind. THE MESH MAY BE VERY COARSE OR THE SURFACE MAY BE UNTRIMMED 
             AT THE SYMMETRY PLANE. PLEASE USE THE *NORMAL OPTION TO SPECIFY 
             THE PROPER SURFACE NORMAL.

 ***WARNING: Abaqus WILL NOT ADJUST THE SURFACE NORMAL FOR THE SYMMETRY PLANE 
             AT NODE 450 INSTANCE STALK_7-RIND-1 OF SURFACE ASSEMBLY_Inner 
             Rind. THE MESH MAY BE VERY COARSE OR THE SURFACE MAY BE UNTRIMMED 
             AT THE SYMMETRY PLANE. PLEASE USE THE *NORMAL OPTION TO SPECIFY 
             THE PROPER SURFACE NORMAL.

 ***WARNING: 138 nodes may have incorrect normal definitions. The nodes have 
             been identified in node set WarnNodeIncorrectNormal.

 ***WARNING: Abaqus WILL NOT ADJUST THE SURFACE NORMAL FOR THE SYMMETRY PLANE 
             AT NODE 3 INSTANCE STALK_7-PITH-1 OF SURFACE ASSEMBLY_Outer Pith. 
             THE MESH MAY BE VERY COARSE OR THE SURFACE MAY BE UNTRIMMED AT THE 
             SYMMETRY PLANE. PLEASE USE THE *NORMAL OPTION TO SPECIFY THE 
             PROPER SURFACE NORMAL.

 ***WARNING: Abaqus WILL NOT ADJUST THE SURFACE NORMAL FOR THE SYMMETRY PLANE 
             AT NODE 5 INSTANCE STALK_7-PITH-1 OF SURFACE ASSEMBLY_Outer Pith. 
             THE MESH MAY BE VERY COARSE OR THE SURFACE MAY BE UNTRIMMED AT THE 
             SYMMETRY PLANE. PLEASE USE THE *NORMAL OPTION TO SPECIFY THE 
             PROPER SURFACE NORMAL.

 ***WARNING: Abaqus WILL NOT ADJUST THE SURFACE NORMAL FOR THE SYMMETRY PLANE 
             AT NODE 10 INSTANCE STALK_7-PITH-1 OF SURFACE ASSEMBLY_Outer Pith. 
             THE MESH MAY BE VERY COARSE OR THE SURFACE MAY BE UNTRIMMED AT THE 
             SYMMETRY PLANE. PLEASE USE THE *NORMAL OPTION TO SPECIFY THE 
             PROPER SURFACE NORMAL.

 ***WARNING: Abaqus WILL NOT ADJUST THE SURFACE NORMAL FOR THE SYMMETRY PLANE 
             AT NODE 18 INSTANCE STALK_7-PITH-1 OF SURFACE ASSEMBLY_Outer Pith. 
             THE MESH MAY BE VERY COARSE OR THE SURFACE MAY BE UNTRIMMED AT THE 
             SYMMETRY PLANE. PLEASE USE THE *NORMAL OPTION TO SPECIFY THE 
             PROPER SURFACE NORMAL.

 ***WARNING: Abaqus WILL NOT ADJUST THE SURFACE NORMAL FOR THE SYMMETRY PLANE 
             AT NODE 19 INSTANCE STALK_7-PITH-1 OF SURFACE ASSEMBLY_Outer Pith. 
             THE MESH MAY BE VERY COARSE OR THE SURFACE MAY BE UNTRIMMED AT THE 
             SYMMETRY PLANE. PLEASE USE THE *NORMAL OPTION TO SPECIFY THE 
             PROPER SURFACE NORMAL.

 ***WARNING: Abaqus WILL NOT ADJUST THE SURFACE NORMAL FOR THE SYMMETRY PLANE 
             AT NODE 20 INSTANCE STALK_7-PITH-1 OF SURFACE ASSEMBLY_Outer Pith. 
             THE MESH MAY BE VERY COARSE OR THE SURFACE MAY BE UNTRIMMED AT THE 
             SYMMETRY PLANE. PLEASE USE THE *NORMAL OPTION TO SPECIFY THE 
             PROPER SURFACE NORMAL.

 ***WARNING: Abaqus WILL NOT ADJUST THE SURFACE NORMAL FOR THE SYMMETRY PLANE 
             AT NODE 21 INSTANCE STALK_7-PITH-1 OF SURFACE ASSEMBLY_Outer Pith. 
             THE MESH MAY BE VERY COARSE OR THE SURFACE MAY BE UNTRIMMED AT THE 
             SYMMETRY PLANE. PLEASE USE THE *NORMAL OPTION TO SPECIFY THE 
             PROPER SURFACE NORMAL.

 ***WARNING: Abaqus WILL NOT ADJUST THE SURFACE NORMAL FOR THE SYMMETRY PLANE 
             AT NODE 22 INSTANCE STALK_7-PITH-1 OF SURFACE ASSEMBLY_Outer Pith. 
             THE MESH MAY BE VERY COARSE OR THE SURFACE MAY BE UNTRIMMED AT THE 
             SYMMETRY PLANE. PLEASE USE THE *NORMAL OPTION TO SPECIFY THE 
             PROPER SURFACE NORMAL.

 ***WARNING: Abaqus WILL NOT ADJUST THE SURFACE NORMAL FOR THE SYMMETRY PLANE 
             AT NODE 23 INSTANCE STALK_7-PITH-1 OF SURFACE ASSEMBLY_Outer Pith. 
             THE MESH MAY BE VERY COARSE OR THE SURFACE MAY BE UNTRIMMED AT THE 
             SYMMETRY PLANE. PLEASE USE THE *NORMAL OPTION TO SPECIFY THE 
             PROPER SURFACE NORMAL.

 ***WARNING: Abaqus WILL NOT ADJUST THE SURFACE NORMAL FOR THE SYMMETRY PLANE 
             AT NODE 30 INSTANCE STALK_7-PITH-1 OF SURFACE ASSEMBLY_Outer Pith. 
             THE MESH MAY BE VERY COARSE OR THE SURFACE MAY BE UNTRIMMED AT THE 
             SYMMETRY PLANE. PLEASE USE THE *NORMAL OPTION TO SPECIFY THE 
             PROPER SURFACE NORMAL.

 ***WARNING: Abaqus WILL NOT ADJUST THE SURFACE NORMAL FOR THE SYMMETRY PLANE 
             AT NODE 37 INSTANCE STALK_7-PITH-1 OF SURFACE ASSEMBLY_Outer Pith. 
             THE MESH MAY BE VERY COARSE OR THE SURFACE MAY BE UNTRIMMED AT THE 
             SYMMETRY PLANE. PLEASE USE THE *NORMAL OPTION TO SPECIFY THE 
             PROPER SURFACE NORMAL.

 ***WARNING: Abaqus WILL NOT ADJUST THE SURFACE NORMAL FOR THE SYMMETRY PLANE 
             AT NODE 45 INSTANCE STALK_7-PITH-1 OF SURFACE ASSEMBLY_Outer Pith. 
             THE MESH MAY BE VERY COARSE OR THE SURFACE MAY BE UNTRIMMED AT THE 
             SYMMETRY PLANE. PLEASE USE THE *NORMAL OPTION TO SPECIFY THE 
             PROPER SURFACE NORMAL.

 ***WARNING: Abaqus WILL NOT ADJUST THE SURFACE NORMAL FOR THE SYMMETRY PLANE 
             AT NODE 46 INSTANCE STALK_7-PITH-1 OF SURFACE ASSEMBLY_Outer Pith. 
             THE MESH MAY BE VERY COARSE OR THE SURFACE MAY BE UNTRIMMED AT THE 
             SYMMETRY PLANE. PLEASE USE THE *NORMAL OPTION TO SPECIFY THE 
             PROPER SURFACE NORMAL.

 ***WARNING: Abaqus WILL NOT ADJUST THE SURFACE NORMAL FOR THE SYMMETRY PLANE 
             AT NODE 47 INSTANCE STALK_7-PITH-1 OF SURFACE ASSEMBLY_Outer Pith. 
             THE MESH MAY BE VERY COARSE OR THE SURFACE MAY BE UNTRIMMED AT THE 
             SYMMETRY PLANE. PLEASE USE THE *NORMAL OPTION TO SPECIFY THE 
             PROPER SURFACE NORMAL.

 ***WARNING: Abaqus WILL NOT ADJUST THE SURFACE NORMAL FOR THE SYMMETRY PLANE 
             AT NODE 48 INSTANCE STALK_7-PITH-1 OF SURFACE ASSEMBLY_Outer Pith. 
             THE MESH MAY BE VERY COARSE OR THE SURFACE MAY BE UNTRIMMED AT THE 
             SYMMETRY PLANE. PLEASE USE THE *NORMAL OPTION TO SPECIFY THE 
             PROPER SURFACE NORMAL.

 ***WARNING: Abaqus WILL NOT ADJUST THE SURFACE NORMAL FOR THE SYMMETRY PLANE 
             AT NODE 49 INSTANCE STALK_7-PITH-1 OF SURFACE ASSEMBLY_Outer Pith. 
             THE MESH MAY BE VERY COARSE OR THE SURFACE MAY BE UNTRIMMED AT THE 
             SYMMETRY PLANE. PLEASE USE THE *NORMAL OPTION TO SPECIFY THE 
             PROPER SURFACE NORMAL.

 ***WARNING: Abaqus WILL NOT ADJUST THE SURFACE NORMAL FOR THE SYMMETRY PLANE 
             AT NODE 57 INSTANCE STALK_7-PITH-1 OF SURFACE ASSEMBLY_Outer Pith. 
             THE MESH MAY BE VERY COARSE OR THE SURFACE MAY BE UNTRIMMED AT THE 
             SYMMETRY PLANE. PLEASE USE THE *NORMAL OPTION TO SPECIFY THE 
             PROPER SURFACE NORMAL.

 ***WARNING: Abaqus WILL NOT ADJUST THE SURFACE NORMAL FOR THE SYMMETRY PLANE 
             AT NODE 58 INSTANCE STALK_7-PITH-1 OF SURFACE ASSEMBLY_Outer Pith. 
             THE MESH MAY BE VERY COARSE OR THE SURFACE MAY BE UNTRIMMED AT THE 
             SYMMETRY PLANE. PLEASE USE THE *NORMAL OPTION TO SPECIFY THE 
             PROPER SURFACE NORMAL.

 ***WARNING: Abaqus WILL NOT ADJUST THE SURFACE NORMAL FOR THE SYMMETRY PLANE 
             AT NODE 59 INSTANCE STALK_7-PITH-1 OF SURFACE ASSEMBLY_Outer Pith. 
             THE MESH MAY BE VERY COARSE OR THE SURFACE MAY BE UNTRIMMED AT THE 
             SYMMETRY PLANE. PLEASE USE THE *NORMAL OPTION TO SPECIFY THE 
             PROPER SURFACE NORMAL.

 ***WARNING: Abaqus WILL NOT ADJUST THE SURFACE NORMAL FOR THE SYMMETRY PLANE 
             AT NODE 60 INSTANCE STALK_7-PITH-1 OF SURFACE ASSEMBLY_Outer Pith. 
             THE MESH MAY BE VERY COARSE OR THE SURFACE MAY BE UNTRIMMED AT THE 
             SYMMETRY PLANE. PLEASE USE THE *NORMAL OPTION TO SPECIFY THE 
             PROPER SURFACE NORMAL.

 ***WARNING: Abaqus WILL NOT ADJUST THE SURFACE NORMAL FOR THE SYMMETRY PLANE 
             AT NODE 61 INSTANCE STALK_7-PITH-1 OF SURFACE ASSEMBLY_Outer Pith. 
             THE MESH MAY BE VERY COARSE OR THE SURFACE MAY BE UNTRIMMED AT THE 
             SYMMETRY PLANE. PLEASE USE THE *NORMAL OPTION TO SPECIFY THE 
             PROPER SURFACE NORMAL.

 ***WARNING: Abaqus WILL NOT ADJUST THE SURFACE NORMAL FOR THE SYMMETRY PLANE 
             AT NODE 79 INSTANCE STALK_7-PITH-1 OF SURFACE ASSEMBLY_Outer Pith. 
             THE MESH MAY BE VERY COARSE OR THE SURFACE MAY BE UNTRIMMED AT THE 
             SYMMETRY PLANE. PLEASE USE THE *NORMAL OPTION TO SPECIFY THE 
             PROPER SURFACE NORMAL.

 ***WARNING: Abaqus WILL NOT ADJUST THE SURFACE NORMAL FOR THE SYMMETRY PLANE 
             AT NODE 80 INSTANCE STALK_7-PITH-1 OF SURFACE ASSEMBLY_Outer Pith. 
             THE MESH MAY BE VERY COARSE OR THE SURFACE MAY BE UNTRIMMED AT THE 
             SYMMETRY PLANE. PLEASE USE THE *NORMAL OPTION TO SPECIFY THE 
             PROPER SURFACE NORMAL.

 ***WARNING: Abaqus WILL NOT ADJUST THE SURFACE NORMAL FOR THE SYMMETRY PLANE 
             AT NODE 83 INSTANCE STALK_7-PITH-1 OF SURFACE ASSEMBLY_Outer Pith. 
             THE MESH MAY BE VERY COARSE OR THE SURFACE MAY BE UNTRIMMED AT THE 
             SYMMETRY PLANE. PLEASE USE THE *NORMAL OPTION TO SPECIFY THE 
             PROPER SURFACE NORMAL.

 ***WARNING: 24 nodes may have incorrect normal definitions. The nodes have 
             been identified in node set WarnNodeIncorrectNormal.

 ***WARNING: PLEASE MAKE SURE THAT THE MESH DENSITY OF THE SECONDARY SURFACE IN 
             THE TIE PAIR (ASSEMBLY_Outer Pith,ASSEMBLY_Inner Rind) IS FINER 
             THAN THE MAIN SURFACE.  THE ANALYSIS MAY RUN SLOWER, MAY YIELD 
             INACCURATE RESULTS, AND MAY REQUIRE MORE MEMORY IF THIS IS NOT THE 
             CASE.
  *tie, name=ASSEMBLY__T0_STALK_7-PITH-1-NODES, adjust=NO
  *tie, name=ASSEMBLY__T1_STALK_7-PITH-1-NODES, adjust=NO
  *tie, name=ASSEMBLY_PITHTORIND, adjust=NO
  *tie, name=ASSEMBLY__T0_STALK_7-PITH-1-NODES, adjust=NO
  *tie, name=ASSEMBLY__T1_STALK_7-PITH-1-NODES, adjust=NO
  *tie, name=ASSEMBLY_PITHTORIND, adjust=NO

 ***WARNING: OVERCONSTRAINT CHECKS: NODE 5 INSTANCE STALK_7-PITH-1 IS USED MORE 
             THAN ONCE AS A SECONDARY NODE IN THE *TIE KEYWORD.  THE CONSTRAINT 
             BETWEEN THIS NODE AND THE MAIN SURFACE WITH NODE 56 INSTANCE 
             STALK_7-RIND-1 IS REMOVED.  CHECK IF THIS IS ACCEPTABLE.

 ***WARNING: OVERCONSTRAINT CHECKS: NODE 6 INSTANCE STALK_7-PITH-1 IS USED MORE 
             THAN ONCE AS A SECONDARY NODE IN THE *TIE KEYWORD.  THE CONSTRAINT 
             BETWEEN THIS NODE AND THE MAIN SURFACE WITH NODE 56 INSTANCE 
             STALK_7-RIND-1 IS REMOVED.  CHECK IF THIS IS ACCEPTABLE.

 ***WARNING: OVERCONSTRAINT CHECKS: NODE 8 INSTANCE STALK_7-PITH-1 IS USED MORE 
             THAN ONCE AS A SECONDARY NODE IN THE *TIE KEYWORD.  THE CONSTRAINT 
             BETWEEN THIS NODE AND THE MAIN SURFACE WITH NODE 151 INSTANCE 
             STALK_7-RIND-1 IS REMOVED.  CHECK IF THIS IS ACCEPTABLE.

 ***WARNING: OVERCONSTRAINT CHECKS: NODE 23 INSTANCE STALK_7-PITH-1 IS USED 
             MORE THAN ONCE AS A SECONDARY NODE IN THE *TIE KEYWORD.  THE 
             CONSTRAINT BETWEEN THIS NODE AND THE MAIN SURFACE WITH NODE 56 
             INSTANCE STALK_7-RIND-1 IS REMOVED.  CHECK IF THIS IS ACCEPTABLE.

 ***WARNING: OVERCONSTRAINT CHECKS: NODE 37 INSTANCE STALK_7-PITH-1 IS USED 
             MORE THAN ONCE AS A SECONDARY NODE IN THE *TIE KEYWORD.  THE 
             CONSTRAINT BETWEEN THIS NODE AND THE MAIN SURFACE WITH NODE 113 
             INSTANCE STALK_7-RIND-1 IS REMOVED.  CHECK IF THIS IS ACCEPTABLE.
  *rigidbody, refnode=ASSEMBLY__PICKEDSET22, tienset="ASSEMBLY_Front Face"
  *surface, type=ELEMENT, name="ASSEMBLY_Inner Rind"
  *surface, type=ELEMENT, name="ASSEMBLY_Outer Pith"
  *surface, type=ELEMENT, name="ASSEMBLY_Outer Rind"
  *surface, type=ELEMENT, name=ASSEMBLY__T0_STALK_7-PITH-1_M
  *surface, type=NODE, name=ASSEMBLY__T0_STALK_7-PITH-1_SN
  *surface, type=ELEMENT, name=ASSEMBLY__T1_STALK_7-PITH-1_M
  *surface, type=NODE, name=ASSEMBLY__T1_STALK_7-PITH-1_SN
  *tie, name=ASSEMBLY__T0_STALK_7-PITH-1-NODES, adjust=NO
  *tie, name=ASSEMBLY__T1_STALK_7-PITH-1-NODES, adjust=NO
  *tie, name=ASSEMBLY_PITHTORIND, adjust=NO
  *output, field
  *elementoutput, directions=YES
  *output, field
  *elementoutput, directions=YES

 ***WARNING: 5 nodes are used more than once as a secondary node in *TIE 
             keyword. One of the *TIE constraints at each of these nodes have 
             been removed. The nodes have been identified in node set 
             WarnNodeOverconTieSecondary.
  *output, field
  *elementoutput, directions=YES
  *Step, name=BuckleStep, nlgeom=NO, perturbation
  *output, field
  *Step, name=BuckleStep, nlgeom=NO, perturbation
  *Step, name=BuckleStep, nlgeom=NO, perturbation
  *buckle
  *boundary, op=NEW, loadcase=1
  *boundary, op=NEW, loadcase=2
  *boundary, op=NEW, loadcase=1
  *boundary, op=NEW, loadcase=2
  *boundary, op=NEW, loadcase=1
  *boundary, op=NEW, loadcase=2
  *output, field
  *nodeoutput
  *elementoutput, directions=YES
  *endstep

 ***WARNING: OUTPUT REQUEST TF IS NOT AVAILABLE FOR THIS TYPE OF ANALYSIS

 ***WARNING: OUTPUT REQUEST IVOL IS NOT AVAILABLE FOR THIS TYPE OF ANALYSIS

 ***WARNING: STRAIN OUTPUT REQUEST LE IS NOT VALID FOR SOME ELEMENTS IN THIS 
             ANALYSIS. THIS REQUEST IS SWITCHED TO THE STRAIN MEASURE, E.

 ***WARNING: OUTPUT REQUEST IVOL IS NOT AVAILABLE FOR THIS TYPE OF ANALYSIS

 ***WARNING: STRAIN OUTPUT REQUEST LE IS NOT VALID FOR SOME ELEMENTS IN THIS 
             ANALYSIS. THIS REQUEST IS SWITCHED TO THE STRAIN MEASURE, E.

 ***WARNING: OUTPUT REQUEST IVOL IS NOT AVAILABLE FOR THIS TYPE OF ANALYSIS

 ***WARNING: STRAIN OUTPUT REQUEST LE IS NOT VALID FOR SOME ELEMENTS IN THIS 
             ANALYSIS. THIS REQUEST IS SWITCHED TO THE STRAIN MEASURE, E.

 ***WARNING: OUTPUT REQUEST IVOL IS NOT AVAILABLE FOR THIS TYPE OF ANALYSIS

 ***WARNING: STRAIN OUTPUT REQUEST LE IS NOT VALID FOR SOME ELEMENTS IN THIS 
             ANALYSIS. THIS REQUEST IS SWITCHED TO THE STRAIN MEASURE, E.
  *Step, name=BuckleStep, nlgeom=NO, perturbation
  *buckle
  *buckle
  *boundary, op=NEW, loadcase=1
  *boundary, op=NEW, loadcase=2
  *boundary, op=NEW, loadcase=1
  *boundary, op=NEW, loadcase=2
  *boundary, op=NEW, loadcase=1
  *boundary, op=NEW, loadcase=2
  *cload, op=NEW
  *cload, op=NEW
  *endstep

 ***WARNING: OVERCONSTRAINT CHECKS: ALL NODES INVOLVED IN THE LAGRANGE 
             MULTILPIER BASED COUPLING CONSTRAINT WITH REFERENCE NODE 3 
             (ASSEMBLY) HAVE SPECIFIED BOUNDARY CONDITIONS. AN OVERCONSTRAINT 
             MOST LIKELY WILL OCCUR. PLEASE CHECK BOUNDARY CONDITIONS AT THE 
             NODES ASSOCIATED WITH THIS COUPLING CONSTRAINT.

 ***WARNING: OVERCONSTRAINT CHECKS: ALL NODES INVOLVED IN THE LAGRANGE 
             MULTILPIER BASED COUPLING CONSTRAINT WITH REFERENCE NODE 2 
             (ASSEMBLY) HAVE SPECIFIED BOUNDARY CONDITIONS. AN OVERCONSTRAINT 
             MOST LIKELY WILL OCCUR. PLEASE CHECK BOUNDARY CONDITIONS AT THE 
             NODES ASSOCIATED WITH THIS COUPLING CONSTRAINT.

 ***WARNING: 2 Lagrange multiplier based COUPLING constraints have boundary 
             conditions specified at all nodesassociated with each constraint. 
             An overconstraint will most likely occur.The reference nodes of 
             these constraints have been identified in node set 
             WarnNodeOverconBoundCoup.
1

   Abaqus 2022.HF4                                  Date 24-Feb-2023   Time 21:54:57
   For use by BRIGHAM YOUNG UNIVERSITY under license from Dassault Systemes or its subsidiary.

                                                                                     


                        S T E P       1     C A L C U L A T I O N   O F   E I G E N V A L U E S

                                            F O R   B U C K L I N G   P R E D I C T I O N



                                                                                          

     THE SUBSPACE ITERATION METHOD IS USED FOR THIS ANALYSIS
     NUMBER OF EIGENVALUES                      2
     MAXIMUM NUMBER OF ITERATIONS                   1000
     NUMBER OF VECTORS IN ITERATION                    4
     THE BUCKLING MODE CONSTRAINTS 
      ARE DEFINED AS LOAD CASE 2
     GLOBAL STABILIZATION CONTROL IS NOT USED

     THIS IS A LINEAR PERTURBATION STEP.
     ALL LOADS ARE DEFINED AS CHANGE IN LOAD TO THE REFERENCE STATE

     EXTRAPOLATION WILL NOT BE USED

     CHARACTERISTIC ELEMENT LENGTH      3.43    

     DETAILS REGARDING ACTUAL SOLUTION WAVEFRONT REQUESTED

     DETAILED OUTPUT OF DIAGNOSTICS TO DATABASE REQUESTED

     PRINT OF INCREMENT NUMBER, TIME, ETC., TO THE MESSAGE FILE EVERY     1  INCREMENTS



                              D A T A B A S E   O U T P U T   G R O U P       1


  THE FOLLOWING  FIELD   OUTPUT WILL BE WRITTEN FOR EVERY     1 EIGENMODES



   THE FOLLOWING OUTPUT WILL BE WRITTEN FOR ALL ELEMENTS OF TYPE C3D8R.  OUTPUT IS AT THE 
   INTEGRATION POINTS.

          COORD           S               E               



   THE FOLLOWING OUTPUT WILL BE WRITTEN FOR ALL ELEMENTS OF TYPE C3D4.  OUTPUT IS AT THE 
   INTEGRATION POINTS.

          COORD           S               E               



   THE FOLLOWING OUTPUT WILL BE WRITTEN FOR ALL ELEMENTS OF TYPE C3D6.  OUTPUT IS AT THE 
   INTEGRATION POINTS.

          COORD           S               E               



   THE FOLLOWING OUTPUT WILL BE WRITTEN FOR ALL ELEMENTS OF TYPE C3D8R.  OUTPUT IS AT THE 
   INTEGRATION POINTS.

          COORD           S               E               



   THE FOLLOWING OUTPUT WILL BE WRITTEN FOR ALL NODES


            COORD     U         UR      





   THE FOLLOWING OUTPUT WILL BE WRITTEN FOR ALL NODES


            COORD     U         UR      





   THE FOLLOWING OUTPUT WILL BE WRITTEN FOR ALL NODES


            COORD     U         UR      



  END OF DATABASE OUTPUT GROUP    1




                              D A T A B A S E   O U T P U T   G R O U P       2


 ***WARNING: NO OUTPUT VARIABLES ASSOCIATED WITH THIS FIELD OUTPUT GROUP.




                              B O U N D A R Y   C O N D I T I O N S


      NODE      DOF     AMP.    MAGNITUDE                 NODE      DOF     AMP.    MAGNITUDE
                        REF.                                                REF.

           2    1     (STEP)     0.0000                        2    2     (STEP)     0.0000               
           2    3     (STEP)     0.0000                        2    4     (STEP)     0.0000               
           2    5     (STEP)     0.0000                        2    6     (STEP)     0.0000               

 ***WARNING: DEGREE OF FREEDOM 4 IS NOT ACTIVE ON NODE 78 INSTANCE 
             STALK_7-PITH-1 - THIS BOUNDARY CONDITION IS IGNORED
          81    3     (STEP)     0.0000                       81    4     (STEP)     0.0000               

 ***WARNING: DEGREE OF FREEDOM 5 IS NOT ACTIVE ON NODE 78 INSTANCE 
             STALK_7-PITH-1 - THIS BOUNDARY CONDITION IS IGNORED

 ***WARNING: DEGREE OF FREEDOM 6 IS NOT ACTIVE ON NODE 78 INSTANCE 
             STALK_7-PITH-1 - THIS BOUNDARY CONDITION IS IGNORED
[...]
  STALK_7-RIND-1                                   59         113       
  STALK_7-RIND-1                                   60         114       
  STALK_7-RIND-1                                   61         115       
  STALK_7-RIND-1                                   62         116       
  STALK_7-RIND-1                                   63         117       
  STALK_7-RIND-1                                   64         118       
  STALK_7-RIND-1                                   65         119       
  STALK_7-RIND-1                                   66         120       
  STALK_7-RIND-1                                   67         121       
  STALK_7-RIND-1                                   68         122       
  STALK_7-RIND-1                                   69         123       
  STALK_7-RIND-1                                   70         124       
  STALK_7-RIND-1                                   71         125       
  STALK_7-RIND-1                                   72         126       
  STALK_7-RIND-1                                   73         127       
  STALK_7-RIND-1                                   74         128       
  STALK_7-RIND-1                                   75         129       
  STALK_7-RIND-1                                   76         130       
  STALK_7-RIND-1                                   77         131       
  STALK_7-RIND-1                                   78         132       
  STALK_7-RIND-1                                   79         133       
  STALK_7-RIND-1                                   80         134       
  STALK_7-RIND-1                                   81         135       
  STALK_7-RIND-1                                   82         136       
  STALK_7-RIND-1                                   83         137       
  STALK_7-RIND-1                                   84         138       
  STALK_7-RIND-1                                   85         139       
  STALK_7-RIND-1                                   86         140       
  STALK_7-RIND-1                                   87         141       
  STALK_7-RIND-1                                   88         142       
  STALK_7-RIND-1                                   89         143       
  STALK_7-RIND-1                                   90         144       
  STALK_7-RIND-1                                   91         145       
  STALK_7-RIND-1                                   92         146       
  STALK_7-RIND-1                                   93         147       
  STALK_7-RIND-1                                   94         148       
  STALK_7-RIND-1                                   95         149       
  STALK_7-RIND-1                                   96         150       
  STALK_7-RIND-1                                   97         151       
  STALK_7-RIND-1                                   98         152       
  STALK_7-RIND-1                                   99         153       
  STALK_7-RIND-1                                   100        154       
  STALK_7-RIND-1                                   101        155       
  STALK_7-RIND-1                                   102        156       
  STALK_7-RIND-1                                   103        157       
  STALK_7-RIND-1                                   104        158       
  STALK_7-RIND-1                                   105        159       
  STALK_7-RIND-1                                   106        160       
  STALK_7-RIND-1                                   107        161       
  STALK_7-RIND-1                                   108        162       
  STALK_7-RIND-1                                   109        163       
  STALK_7-RIND-1                                   110        164       
  STALK_7-RIND-1                                   111        165       
  STALK_7-RIND-1                                   112        166       
  STALK_7-RIND-1                                   113        167       
  STALK_7-RIND-1                                   114        168       
  STALK_7-RIND-1                                   115        169       
  STALK_7-RIND-1                                   116        170       
  STALK_7-RIND-1                                   117        171       
  STALK_7-RIND-1                                   118        172       
  STALK_7-RIND-1                                   119        173       
  STALK_7-RIND-1                                   120        174       
  STALK_7-RIND-1                                   121        175       
  STALK_7-RIND-1                                   122        176       
  STALK_7-RIND-1                                   123        177       
  STALK_7-RIND-1                                   124        178       
  STALK_7-RIND-1                                   125        179       
  STALK_7-RIND-1                                   126        180       
  STALK_7-RIND-1                                   127        181       
  STALK_7-RIND-1                                   128        182       
  STALK_7-RIND-1                                   129        183       
  STALK_7-RIND-1                                   130        184       
  STALK_7-RIND-1                                   131        185       
  STALK_7-RIND-1                                   132        186       
  STALK_7-RIND-1                                   133        187       
  STALK_7-RIND-1                                   134        188       
  STALK_7-RIND-1                                   135        189       
  STALK_7-RIND-1                                   136        190       
  STALK_7-RIND-1                                   137        191       
  STALK_7-RIND-1                                   138        192       
  STALK_7-RIND-1                                   139        193       
  STALK_7-RIND-1                                   140        194       
  STALK_7-RIND-1                                   141        195       
  STALK_7-RIND-1                                   142        196       
  STALK_7-RIND-1                                   143        197       
  STALK_7-RIND-1                                   144        198       
  STALK_7-RIND-1                                   145        199       
  STALK_7-RIND-1                                   146        200       
  STALK_7-RIND-1                                   147        201       
  STALK_7-RIND-1                                   148        202       
  STALK_7-RIND-1                                   149        203       
  STALK_7-RIND-1                                   150        204       
  STALK_7-RIND-1                                   151        205       
  STALK_7-RIND-1                                   152        206       
  STALK_7-RIND-1                                   153        207       
  STALK_7-RIND-1                                   154        208       
  STALK_7-RIND-1                                   155        209       
  STALK_7-RIND-1                                   156        210       
  STALK_7-RIND-1                                   157        211       
  STALK_7-RIND-1                                   158        212       
  STALK_7-RIND-1                                   159        213       
  STALK_7-RIND-1                                   160        214       
  STALK_7-RIND-1                                   161        215       
  STALK_7-RIND-1                                   162        216       
  STALK_7-RIND-1                                   163        217       
  STALK_7-RIND-1                                   164        218       
  STALK_7-RIND-1                                   165        219       
  STALK_7-RIND-1                                   166        220       
  STALK_7-RIND-1                                   167        221       
  STALK_7-RIND-1                                   168        222       
  STALK_7-RIND-1                                   169        223       
  STALK_7-RIND-1                                   170        224       
  STALK_7-RIND-1                                   171        225       
  STALK_7-RIND-1                                   172        226       
  STALK_7-RIND-1                                   173        227       
  STALK_7-RIND-1                                   174        228       
  STALK_7-RIND-1                                   175        229       
  STALK_7-RIND-1                                   176        230       
  STALK_7-RIND-1                                   177        231       
  STALK_7-RIND-1                                   178        232       
  STALK_7-RIND-1                                   179        233       
  STALK_7-RIND-1                                   180        234       
  STALK_7-RIND-1                                   181        235       
  STALK_7-RIND-1                                   182        236       
  STALK_7-RIND-1                                   183        237       
  STALK_7-RIND-1                                   184        238       
  STALK_7-RIND-1                                   185        239       
  STALK_7-RIND-1                                   186        240       
  STALK_7-RIND-1                                   187        241       
  STALK_7-RIND-1                                   188        242       
  STALK_7-RIND-1                                   189        243       
  STALK_7-RIND-1                                   190        244       
  STALK_7-RIND-1                                   191        245       
  STALK_7-RIND-1                                   192        246       
  STALK_7-RIND-1                                   193        247       
  STALK_7-RIND-1                                   194        248       
  STALK_7-RIND-1                                   195        249       
  STALK_7-RIND-1                                   196        250       
  STALK_7-RIND-1                                   197        251       
  STALK_7-RIND-1                                   198        252       
  STALK_7-RIND-1                                   199        253       
  STALK_7-RIND-1                                   200        254       
  STALK_7-RIND-1                                   201        255       
  STALK_7-RIND-1                                   202        256       
  STALK_7-RIND-1                                   203        257       
  STALK_7-RIND-1                                   204        258       
  STALK_7-RIND-1                                   205        259       
  STALK_7-RIND-1                                   206        260       
  STALK_7-RIND-1                                   207        261       
  STALK_7-RIND-1                                   208        262       
  STALK_7-RIND-1                                   209        263       
  STALK_7-RIND-1                                   210        264       




                            P R O B L E M   S I Z E


          NUMBER OF ELEMENTS IS                                   267
          NUMBER OF ELEMENTS DEFINED BY THE USER AND *TIE         266
          NUMBER OF NODES IS                                      539
          NUMBER OF NODES DEFINED BY THE USER                     537
          NUMBER OF INTERNAL NODES GENERATED BY THE PROGRAM         2
          TOTAL NUMBER OF VARIABLES IN THE MODEL                 1731
          (DEGREES OF FREEDOM PLUS MAX NO. OF ANY LAGRANGE MULTIPLIER
           VARIABLES. INCLUDE *PRINT,SOLVE=YES TO GET THE ACTUAL NUMBER.)



                              END OF USER INPUT PROCESSING



     JOB TIME SUMMARY
       USER TIME (SEC)      =     0.30    
       SYSTEM TIME (SEC)    =     0.10    
       TOTAL CPU TIME (SEC) =     0.40    
       WALLCLOCK TIME (SEC) =            0
1

   Abaqus 2022.HF4                                  Date 24-Feb-2023   Time 21:55:00
   For use by BRIGHAM YOUNG UNIVERSITY under license from Dassault Systemes or its subsidiary.

                                                                                               STEP    1  INCREMENT    1
                                                                                          TIME COMPLETED IN THIS STEP   0.00    


                        S T E P       1     C A L C U L A T I O N   O F   E I G E N V A L U E S

                                            F O R   B U C K L I N G   P R E D I C T I O N



                                                                                          

     THE SUBSPACE ITERATION METHOD IS USED FOR THIS ANALYSIS
     NUMBER OF EIGENVALUES                      2
     MAXIMUM NUMBER OF ITERATIONS                   1000
     NUMBER OF VECTORS IN ITERATION                    4
     THE BUCKLING MODE CONSTRAINTS 
      ARE DEFINED AS LOAD CASE 2
                              ONLY INITIAL STRESS EFFECTS ARE INCLUDED IN THE
                              STIFFNESS MATRIX

     THIS IS A LINEAR PERTURBATION STEP.
     ALL LOADS ARE DEFINED AS CHANGE IN LOAD TO THE REFERENCE STATE
  
                   M E M O R Y   E S T I M A T E
  
 PROCESS      FLOATING PT       MINIMUM MEMORY        MEMORY TO
              OPERATIONS           REQUIRED          MINIMIZE I/O
             PER ITERATION           (MB)               (MB)
  
     1          1.12E+08               25                 37
  
 NOTE:
      (1) SINCE ABAQUS DOES NOT PRE-ALLOCATE MEMORY AND ONLY ALLOCATES MEMORY AS NEEDED DURING THE ANALYSIS,
          THE MEMORY REQUIREMENT PRINTED HERE CAN ONLY BE VIEWED AS A GENERAL GUIDELINE BASED ON THE BEST
          KNOWLEDGE AVAILABLE AT THE BEGINNING OF A STEP BEFORE THE SOLUTION PROCESS HAS BEGUN.
      (2) THE ESTIMATE IS NORMALLY UPDATED AT THE BEGINNING OF EVERY STEP. IT IS THE MAXIMUM VALUE OF THE
          ESTIMATE FROM THE CURRENT STEP TO THE LAST STEP OF THE ANALYSIS, WITH UNSYMMETRIC SOLUTION TAKEN
          INTO ACCOUNT IF APPLICABLE. 
      (3) SINCE THE ESTIMATE IS BASED ON THE ACTIVE DEGREES OF FREEDOM IN THE FIRST ITERATION OF THE 
          CURRENT STEP, THE MEMORY ESTIMATE MIGHT BE SIGNIFICANTLY DIFFERENT THAN ACTUAL USAGE FOR 
          PROBLEMS WITH SUBSTANTIAL CHANGES IN ACTIVE DEGREES OF FREEDOM BETWEEN STEPS (OR EVEN WITHIN
          THE SAME STEP). EXAMPLES ARE: PROBLEMS WITH SIGNIFICANT CONTACT CHANGES, PROBLEMS WITH MODEL
          CHANGE, PROBLEMS WITH BOTH STATIC STEP AND STEADY STATE DYNAMIC PROCEDURES WHERE ACOUSTIC 
          ELEMENTS WILL ONLY BE ACTIVATED IN THE STEADY STATE DYNAMIC STEPS.
      (4) FOR MULTI-PROCESS EXECUTION, THE ESTIMATED VALUE OF FLOATING POINT OPERATIONS FOR EACH PROCESS
          IS BASED ON AN INITIAL SCHEDULING OF OPERATIONS AND MIGHT NOT REFLECT THE ACTUAL FLOATING 
          POINT OPERATIONS COMPLETED ON EACH PROCESS. OPERATIONS ARE DYNAMICALLY BALANCED DURING EXECUTION, 
          SO THE ACTUAL BALANCE OF OPERATIONS BETWEEN PROCESSES IS EXPECTED TO BE BETTER THAN THE ESTIMATE
          PRINTED HERE.
      (5) THE UPPER LIMIT OF MEMORY THAT CAN BE ALLOCATED BY ABAQUS WILL IN GENERAL DEPEND ON THE VALUE OF
          THE "MEMORY" PARAMETER AND THE AMOUNT OF PHYSICAL MEMORY AVAILABLE ON THE MACHINE. PLEASE SEE
          THE "ABAQUS ANALYSIS USER'S MANUAL" FOR MORE DETAILS. THE ACTUAL USAGE OF MEMORY AND OF DISK
          SPACE FOR SCRATCH DATA WILL DEPEND ON THIS UPPER LIMIT AS WELL AS THE MEMORY REQUIRED TO MINIMIZE
          I/O. IF THE MEMORY UPPER LIMIT IS GREATER THAN THE MEMORY REQUIRED TO MINIMIZE I/O, THEN THE ACTUAL
          MEMORY USAGE WILL BE CLOSE TO THE ESTIMATED "MEMORY TO MINIMIZE I/O" VALUE, AND THE SCRATCH DISK
          USAGE WILL BE CLOSE-TO-ZERO; OTHERWISE, THE ACTUAL MEMORY USED WILL BE CLOSE TO THE PREVIOUSLY
          MENTIONED MEMORY LIMIT, AND THE SCRATCH DISK USAGE WILL BE ROUGHLY PROPORTIONAL TO THE DIFFERENCE
          BETWEEN THE ESTIMATED "MEMORY TO MINIMIZE I/O" AND THE MEMORY UPPER LIMIT. HOWEVER ACCURATE
          ESTIMATE OF THE SCRATCH DISK SPACE IS NOT POSSIBLE.
      (6) USING "*RESTART, WRITE" CAN GENERATE A LARGE AMOUNT OF DATA WRITTEN IN THE WORK DIRECTORY.
  
                   M E M O R Y   E S T I M A T E
  
 PROCESS      FLOATING PT       MINIMUM MEMORY        MEMORY TO
              OPERATIONS           REQUIRED          MINIMIZE I/O
             PER ITERATION           (MB)               (MB)
  
     1          1.12E+08               27                 39
  
 NOTE:
      (1) SINCE ABAQUS DOES NOT PRE-ALLOCATE MEMORY AND ONLY ALLOCATES MEMORY AS NEEDED DURING THE ANALYSIS,
          THE MEMORY REQUIREMENT PRINTED HERE CAN ONLY BE VIEWED AS A GENERAL GUIDELINE BASED ON THE BEST
          KNOWLEDGE AVAILABLE AT THE BEGINNING OF A STEP BEFORE THE SOLUTION PROCESS HAS BEGUN.
      (2) THE ESTIMATE IS NORMALLY UPDATED AT THE BEGINNING OF EVERY STEP. IT IS THE MAXIMUM VALUE OF THE
          ESTIMATE FROM THE CURRENT STEP TO THE LAST STEP OF THE ANALYSIS, WITH UNSYMMETRIC SOLUTION TAKEN
          INTO ACCOUNT IF APPLICABLE. 
      (3) SINCE THE ESTIMATE IS BASED ON THE ACTIVE DEGREES OF FREEDOM IN THE FIRST ITERATION OF THE 
          CURRENT STEP, THE MEMORY ESTIMATE MIGHT BE SIGNIFICANTLY DIFFERENT THAN ACTUAL USAGE FOR 
          PROBLEMS WITH SUBSTANTIAL CHANGES IN ACTIVE DEGREES OF FREEDOM BETWEEN STEPS (OR EVEN WITHIN
          THE SAME STEP). EXAMPLES ARE: PROBLEMS WITH SIGNIFICANT CONTACT CHANGES, PROBLEMS WITH MODEL
          CHANGE, PROBLEMS WITH BOTH STATIC STEP AND STEADY STATE DYNAMIC PROCEDURES WHERE ACOUSTIC 
          ELEMENTS WILL ONLY BE ACTIVATED IN THE STEADY STATE DYNAMIC STEPS.
      (4) FOR MULTI-PROCESS EXECUTION, THE ESTIMATED VALUE OF FLOATING POINT OPERATIONS FOR EACH PROCESS
          IS BASED ON AN INITIAL SCHEDULING OF OPERATIONS AND MIGHT NOT REFLECT THE ACTUAL FLOATING 
          POINT OPERATIONS COMPLETED ON EACH PROCESS. OPERATIONS ARE DYNAMICALLY BALANCED DURING EXECUTION, 
          SO THE ACTUAL BALANCE OF OPERATIONS BETWEEN PROCESSES IS EXPECTED TO BE BETTER THAN THE ESTIMATE
          PRINTED HERE.
      (5) THE UPPER LIMIT OF MEMORY THAT CAN BE ALLOCATED BY ABAQUS WILL IN GENERAL DEPEND ON THE VALUE OF
          THE "MEMORY" PARAMETER AND THE AMOUNT OF PHYSICAL MEMORY AVAILABLE ON THE MACHINE. PLEASE SEE
          THE "ABAQUS ANALYSIS USER'S MANUAL" FOR MORE DETAILS. THE ACTUAL USAGE OF MEMORY AND OF DISK
          SPACE FOR SCRATCH DATA WILL DEPEND ON THIS UPPER LIMIT AS WELL AS THE MEMORY REQUIRED TO MINIMIZE
          I/O. IF THE MEMORY UPPER LIMIT IS GREATER THAN THE MEMORY REQUIRED TO MINIMIZE I/O, THEN THE ACTUAL
          MEMORY USAGE WILL BE CLOSE TO THE ESTIMATED "MEMORY TO MINIMIZE I/O" VALUE, AND THE SCRATCH DISK
          USAGE WILL BE CLOSE-TO-ZERO; OTHERWISE, THE ACTUAL MEMORY USED WILL BE CLOSE TO THE PREVIOUSLY
          MENTIONED MEMORY LIMIT, AND THE SCRATCH DISK USAGE WILL BE ROUGHLY PROPORTIONAL TO THE DIFFERENCE
          BETWEEN THE ESTIMATED "MEMORY TO MINIMIZE I/O" AND THE MEMORY UPPER LIMIT. HOWEVER ACCURATE
          ESTIMATE OF THE SCRATCH DISK SPACE IS NOT POSSIBLE.
      (6) USING "*RESTART, WRITE" CAN GENERATE A LARGE AMOUNT OF DATA WRITTEN IN THE WORK DIRECTORY.


                              E I G E N V A L U E    O U T P U T     

 BUCKLING LOAD ESTIMATE = ("DEAD" LOADS) + EIGENVALUE * ("LIVE" LOADS).
          "DEAD" LOADS = TOTAL LOAD BEFORE  *BUCKLE STEP.
          "LIVE" LOADS = INCREMENTAL LOAD IN *BUCKLE STEP


 MODE NO      EIGENVALUE


       1       26.964    
       2      -27.043    


          THE ANALYSIS HAS BEEN COMPLETED



                              ANALYSIS COMPLETE
                              WITH    577 WARNING MESSAGES ON THE DAT FILE



     JOB TIME SUMMARY
       USER TIME (SEC)      =      1.9    
       SYSTEM TIME (SEC)    =     0.10    
       TOTAL CPU TIME (SEC) =      2.0    
       WALLCLOCK TIME (SEC) =            3
