*Heading
** Job name: Stalk_7-quarter_buckling-Folder-1 Model name: Model-1
** Generated by: Abaqus/CAE 2022.HF4
*Preprint, echo=NO, model=NO, history=YES, contact=NO
**
** PARTS
**
*Part, name=Stalk_7-pith
*Node
      1,           0.,           0.,   4.53200006
      2,           0.,   -8.3956356,   4.53200006
      3,   9.60284042,           0.,   4.53200006
      4,           0.,           0.,   55.6139984
      5,   10.8540001,           0.,   55.6139984
      6,           0.,  -9.27900028,   55.6139984
      7,           0.,    8.3956356,   4.53200006
      8,           0.,   9.27900028,   55.6139984
      9,           0.,  -3.96295047,   4.53200006
     10,   6.23025894,  -6.38687658,   4.53200006
     11,   4.42059708,           0.,   4.53200006
     12,           0.,           0.,   13.0456667
     13,           0.,           0.,   21.5360374
     14,           0.,           0.,     30.03899
     15,           0.,           0.,   38.5642052
     16,           0.,           0.,   47.1003342
     17,   4.99655914,           0.,   55.6139984
     18,   10.8373775,           0.,   47.0778656
     19,   10.8154182,           0.,   38.5484543
     20,   10.7839766,           0.,   30.0056572
** ... 63 like lines cut
*Element, type=C3D8R
 1, 11,  1,  9, 39, 40, 12, 50, 68
 2,  9,  2, 10, 39, 50, 28, 45, 68
 3, 10,  3, 11, 39, 45, 22, 40, 68
 4, 40, 12, 50, 68, 41, 13, 51, 69
 5, 50, 28, 45, 68, 51, 27, 46, 69
 6, 45, 22, 40, 68, 46, 21, 41, 69
 7, 41, 13, 51, 69, 42, 14, 52, 70
 8, 51, 27, 46, 69, 52, 26, 47, 70
 9, 46, 21, 41, 69, 47, 20, 42, 70
10, 42, 14, 52, 70, 43, 15, 53, 71
11, 52, 26, 47, 70, 53, 25, 48, 71
12, 47, 20, 42, 70, 48, 19, 43, 71
13, 43, 15, 53, 71, 44, 16, 54, 72
14, 53, 25, 48, 71, 54, 24, 49, 72
15, 48, 19, 43, 71, 49, 18, 44, 72
16, 44, 16, 54, 72, 17,  4, 29, 55
17, 54, 24, 49, 72, 29,  6, 23, 55
18, 49, 18, 44, 72, 23,  5, 17, 55
19, 31,  1, 11, 56, 62, 12, 40, 73
20, 11,  3, 30, 56, 40, 22, 57, 73
** ... 16 like lines cut
*Element, type=C3D4
37, 79, 11, 10,  3
38, 79, 78,  9, 11
39, 81, 10,  9,  2
40, 79, 10, 11,  9
41, 79, 11, 83, 78
42, 79, 81,  9, 78
43, 79,  3, 83, 11
44, 79,  9, 81, 10
45, 78, 11,  1,  9
46, 11, 80, 83, 78
47, 11, 80,  3, 83
48, 11, 80, 78, 31
49, 30, 80, 31, 82
50, 11,  3, 80, 30
51, 31, 82, 80, 78
52, 30,  7, 82, 31
53, 11, 30, 80, 31
54, 11,  1, 31, 78
*Nset, nset="Pith Part", generate
  1,  83,   1
*Elset, elset="Pith Part", generate
  1,  54,   1
*Orientation, name=Ori-1
1., 0., 0., 0., 1., 0.
1, 0.
** Section: Pith Section
*Solid Section, elset="Pith Part", orientation=Ori-1, material=pith
,
*End Part
**  
*Part, name=Stalk_7-rind
*Node
      1,           0.,  -9.96186638,   4.53200006
      2,           0.,   -8.3956356,   4.53200006
      3,           0.,  -5.70142555, -2.14949877e-10
      4,           0.,  -10.5505362,           0.
      5,   11.1688137,           0.,   4.53200006
      6,   9.60284042,           0.,   4.53200006
      7,   7.82860422,           0.,           0.
      8,   12.6617041,           0.,           0.
      9,           0.,   5.70142555,           0.
     10,           0.,   10.5505362,           0.
     11,           0.,   9.96186638,   4.53200006
     12,           0.,    8.3956356,   4.53200006
     13,           0.,  -8.12598133,           0.
     14,   9.10417461,  -2.67536831,   4.53200006
     15,   7.68010044,  -5.03817415,   4.53200006
     16,   5.52599096,  -6.86528301,   4.53200006
     17,   2.88490939,  -8.00953007,   4.53200006
     18,   3.30102468,  -9.51886272,   4.53200006
     19,   6.34717703,  -8.19586372,   4.53200006
     20,    8.8649416,  -6.05741453,   4.53200006
** ... 431 like lines cut
*Element, type=C3D6
 1,  2,  1, 13, 17, 18, 48
 2,  4, 13,  1, 26, 48, 18
 3,  2, 13,  3, 17, 48, 25
 4, 17, 18, 48, 16, 19, 49
 5, 26, 48, 18, 27, 49, 19
 6, 17, 48, 25, 16, 49, 24
 7, 16, 19, 49, 15, 20, 50
 8, 27, 49, 19, 28, 50, 20
 9, 16, 49, 24, 15, 50, 23
10, 15, 20, 50, 14, 21, 51
11, 28, 50, 20, 29, 51, 21
12, 15, 50, 23, 14, 51, 22
13, 14, 21, 51,  6,  5, 30
14, 29, 51, 21,  8, 30,  5
15, 14, 51, 22,  6, 30,  7
16, 52, 43, 44, 30,  5,  6
17, 43, 52, 35,  5, 30,  8
18, 36, 52, 44,  7, 30,  6
19, 53, 42, 45, 52, 43, 44
20, 42, 53, 34, 43, 52, 35
** ... 10 like lines cut
*Element, type=C3D8R
 31,   5,   6,  14,  21,  79, 129, 248, 180
 32,  21,  14,  15,  20, 180, 248, 249, 181
 33,  20,  15,  16,  19, 181, 249, 250, 182
 34,  19,  16,  17,  18, 182, 250, 251, 183
 35,  18,  17,   2,   1, 183, 251,  96,  78
 36,  79, 129, 248, 180,  80, 128, 252, 184
 37, 180, 248, 249, 181, 184, 252, 253, 185
 38, 181, 249, 250, 182, 185, 253, 254, 186
 39, 182, 250, 251, 183, 186, 254, 255, 187
 40, 183, 251,  96,  78, 187, 255,  97,  77
 41,  80, 128, 252, 184,  81, 127, 256, 188
 42, 184, 252, 253, 185, 188, 256, 257, 189
 43, 185, 253, 254, 186, 189, 257, 258, 190
 44, 186, 254, 255, 187, 190, 258, 259, 191
 45, 187, 255,  97,  77, 191, 259,  98,  76
 46,  81, 127, 256, 188,  82, 126, 260, 192
 47, 188, 256, 257, 189, 192, 260, 261, 193
 48, 189, 257, 258, 190, 193, 261, 262, 194
 49, 190, 258, 259, 191, 194, 262, 263, 195
 50, 191, 259,  98,  76, 195, 263,  99,  75
** ... 160 like lines cut
*Nset, nset="Rind Part", generate
   1,  451,    1
*Elset, elset="Rind Part", generate
   1,  210,    1
*Orientation, name=Ori-1
1., 0., 0., 0., 1., 0.
1, 0.
** Section: Rind Section
*Solid Section, elset="Rind Part", orientation=Ori-1, material=rind
,
*End Part
**  
**
** ASSEMBLY
**
*Assembly, name=Assembly
**  
*Instance, name=Stalk_7-pith-1, part=Stalk_7-pith
*End Instance
**  
*Instance, name=Stalk_7-rind-1, part=Stalk_7-rind
*End Instance
**  
*Node
      1,           0.,           0.,   55.6139984
*Node
      2, 1.17600625e-15,   10.5505362, 3.8719028e-15
*Node
      3, -2.43045855e-15,  -10.5505362, -2.06709649e-14
*Nset, nset=BottomLowerEdge, instance=Stalk_7-rind-1
   1,  62,  63,  64,  65,  66,  67,  68,  69,  70,  71,  72,  73,  74,  75,  76
  77,  78, 176
*Elset, elset=BottomLowerEdge, instance=Stalk_7-rind-1, generate
  35,  120,    5
*Nset, nset=BottomUpperEdge, instance=Stalk_7-rind-1
  11, 130, 131, 132, 133, 134, 135, 136, 137, 138, 139, 140, 141, 142, 143, 144
 145, 146, 177
*Elset, elset=BottomUpperEdge, instance=Stalk_7-rind-1, generate
 125,  210,    5
*Nset, nset="ExtraRP Set"
 3,
*Nset, nset="Front Face", instance=Stalk_7-pith-1
  4,  5,  6,  8, 17, 23, 29, 37, 38, 55, 67
*Nset, nset="Front Face", instance=Stalk_7-rind-1
  56,  57,  58,  59,  60,  61, 147, 148, 149, 150, 168, 169, 170, 171, 172, 173
 174, 175, 176, 177, 178, 179
*Elset, elset="Front Face", instance=Stalk_7-pith-1
 16, 17, 18, 34, 35, 36
*Elset, elset="Front Face", instance=Stalk_7-rind-1
 116, 117, 118, 119, 120, 206, 207, 208, 209, 210
*Nset, nset="MiddleRP Set"
 2,
*Nset, nset=MiddleSurface, instance=Stalk_7-pith-1, generate
 78,  83,   1
*Nset, nset=MiddleSurface, instance=Stalk_7-rind-1
  3,  4,  7,  8,  9, 10, 13, 22, 23, 24, 25, 26, 27, 28, 29, 30
 31, 32, 33, 34, 35, 36, 37, 38, 39, 48, 49, 50, 51, 52, 53, 54
 55,
*Elset, elset=MiddleSurface, instance=Stalk_7-pith-1
 41, 42, 46, 51
*Elset, elset=MiddleSurface, instance=Stalk_7-rind-1
  2,  3,  5,  6,  8,  9, 11, 12, 14, 15, 17, 18, 20, 21, 23, 24
 26, 27, 29, 30
*Nset, nset="Symmetry Geometry", instance=Stalk_7-pith-1, generate
  1,  83,   1
*Nset, nset="Symmetry Geometry", instance=Stalk_7-rind-1, generate
   1,  451,    1
*Nset, nset="Symmetry Geometry", generate
 1,  3,  1
*Elset, elset="Symmetry Geometry", instance=Stalk_7-pith-1, generate
  1,  54,   1
*Elset, elset="Symmetry Geometry", instance=Stalk_7-rind-1, generate
   1,  210,    1
*Nset, nset=TopLowerEdge, instance=Stalk_7-rind-1
   1,  62,  63,  64,  65,  66,  67,  68,  69,  70,  71,  72,  73,  74,  75,  76
  77,  78, 176
*Elset, elset=TopLowerEdge, instance=Stalk_7-rind-1, generate
  35,  120,    5
*Nset, nset=TopRP
 1,
*Nset, nset=TopUpperEdge, instance=Stalk_7-rind-1
  11, 130, 131, 132, 133, 134, 135, 136, 137, 138, 139, 140, 141, 142, 143, 144
 145, 146, 177
*Elset, elset=TopUpperEdge, instance=Stalk_7-rind-1, generate
 125,  210,    5
*Nset, nset=_PickedSet22, internal
 1,
*Elset, elset="_Inner Rind_S5", internal, instance=Stalk_7-rind-1, generate
  3,  30,   3
*Elset, elset="_Inner Rind_S1", internal, instance=Stalk_7-rind-1, generate
 121,  210,    1
*Elset, elset="_Inner Rind_S4", internal, instance=Stalk_7-rind-1, generate
  31,  120,    1
*Surface, type=ELEMENT, name="Inner Rind"
"_Inner Rind_S5", S5
"_Inner Rind_S1", S1
"_Inner Rind_S4", S4
*Elset, elset="_Outer Pith_S4", internal, instance=Stalk_7-pith-1
  2,  5,  8, 11, 14, 17, 20, 23, 26, 29, 32, 35, 37, 44
*Elset, elset="_Outer Pith_S3", internal, instance=Stalk_7-pith-1
  3,  6,  9, 12, 15, 18, 21, 24, 27, 30, 33, 36, 47, 50
*Elset, elset="_Outer Pith_S2", internal, instance=Stalk_7-pith-1
 39, 49
*Elset, elset="_Outer Pith_S1", internal, instance=Stalk_7-pith-1
 43, 52
*Surface, type=ELEMENT, name="Outer Pith"
"_Outer Pith_S4", S4
"_Outer Pith_S3", S3
"_Outer Pith_S2", S2
"_Outer Pith_S1", S1
*Elset, elset="_Outer Rind_S5", internal, instance=Stalk_7-rind-1, generate
  2,  29,   3
*Elset, elset="_Outer Rind_S6", internal, instance=Stalk_7-rind-1, generate
  31,  120,    1
*Elset, elset="_Outer Rind_S2", internal, instance=Stalk_7-rind-1, generate
 121,  210,    1
*Surface, type=ELEMENT, name="Outer Rind"
"_Outer Rind_S5", S5
"_Outer Rind_S6", S6
"_Outer Rind_S2", S2
*Elset, elset=__T0_Stalk_7-pith-1_M_S3, internal, instance=Stalk_7-pith-1
 37, 39, 40, 45
*Surface, type=ELEMENT, name=_T0_Stalk_7-pith-1_M, internal
__T0_Stalk_7-pith-1_M_S3, S3
*Nset, nset=_T0_Stalk_7-pith-1_SN, instance=Stalk_7-pith-1
 39,
*Surface, type=NODE, name=_T0_Stalk_7-pith-1_SN, internal
_T0_Stalk_7-pith-1_SN
*Tie, name=_T0_Stalk_7-pith-1-Nodes, adjust=no
_T0_Stalk_7-pith-1_SN, _T0_Stalk_7-pith-1_M
*Elset, elset=__T1_Stalk_7-pith-1_M_S2, internal, instance=Stalk_7-pith-1
 50, 52, 53
*Elset, elset=__T1_Stalk_7-pith-1_M_S1, internal, instance=Stalk_7-pith-1
 54,
*Surface, type=ELEMENT, name=_T1_Stalk_7-pith-1_M, internal
__T1_Stalk_7-pith-1_M_S2, S2
__T1_Stalk_7-pith-1_M_S1, S1
*Nset, nset=_T1_Stalk_7-pith-1_SN, instance=Stalk_7-pith-1
 56,
*Surface, type=NODE, name=_T1_Stalk_7-pith-1_SN, internal
_T1_Stalk_7-pith-1_SN
*Tie, name=_T1_Stalk_7-pith-1-Nodes, adjust=no
_T1_Stalk_7-pith-1_SN, _T1_Stalk_7-pith-1_M
** Constraint: ExtraRP
*Coupling, constraint name=ExtraRP, ref node="ExtraRP Set", surface="Outer Rind", influence radius=2.
*Distributing, weighting method=UNIFORM
** Constraint: MiddleRP
*Coupling, constraint name=MiddleRP, ref node="MiddleRP Set", surface="Outer Rind", influence radius=2.
*Distributing, weighting method=UNIFORM
** Constraint: PithtoRind
*Tie, name=PithtoRind, adjust=no
"Outer Pith", "Inner Rind"
** Constraint: TopRP
*Rigid Body, ref node=_PickedSet22, tie nset="Front Face"
*End Assembly
** 
** MATERIALS
** 
*Material, name=pith
*Elastic, type=ENGINEERING CONSTANTS
26.,    26.,   120.,  0.325, 0.0475, 0.0475, 9.8113,   14.4
   14.4,
*Material, name=rind
*Elastic, type=ENGINEERING CONSTANTS
850.,    850., 13081.7,   0.325,  0.0475,  0.0475, 320.755,  1569.8
  1569.8,
** ----------------------------------------------------------------
** 
** STEP: BuckleStep
** 
*Step, name=BuckleStep, nlgeom=NO, perturbation
*Buckle
2, , 4, 1000
** 
** BOUNDARY CONDITIONS
** 
** Name: Fix MiddleRP Type: Displacement/Rotation
*Boundary, op=NEW, load case=1
"MiddleRP Set", 1, 1
"MiddleRP Set", 2, 2
"MiddleRP Set", 3, 3
"MiddleRP Set", 4, 4
"MiddleRP Set", 5, 5
"MiddleRP Set", 6, 6
*Boundary, op=NEW, load case=2
"MiddleRP Set", 1, 1
"MiddleRP Set", 2, 2
"MiddleRP Set", 3, 3
"MiddleRP Set", 4, 4
"MiddleRP Set", 5, 5
"MiddleRP Set", 6, 6
** Name: Rotation Type: Displacement/Rotation
*Boundary, op=NEW, load case=1
MiddleSurface, 3, 3
MiddleSurface, 4, 4
MiddleSurface, 5, 5
MiddleSurface, 6, 6
*Boundary, op=NEW, load case=2
MiddleSurface, 3, 3
MiddleSurface, 4, 4
MiddleSurface, 5, 5
MiddleSurface, 6, 6
** Name: Symmetry Type: Symmetry/Antisymmetry/Encastre
*Boundary, op=NEW, load case=1
"Symmetry Geometry", XSYMM
*Boundary, op=NEW, load case=2
"Symmetry Geometry", XSYMM
** 
** LOADS
** 
** Name: TopForce   Type: Concentrated force
*Cload, op=NEW
TopRP, 2, 0.3548
** Name: TopMoment   Type: Moment
*Cload, op=NEW
TopRP, 4, -182.86
** 
** OUTPUT REQUESTS
** 
*Restart, write, frequency=0
** 
** FIELD OUTPUT: F-Output-1
** 
*Output, field
*Node Output
COORD, TF, U
*Element Output, directions=YES
COORD, IVOL, LE, S
*End Step
